
---------- Begin Simulation Statistics ----------
sim_seconds                                  0.000142                       # Number of seconds simulated
sim_ticks                                   142175500                       # Number of ticks simulated
final_tick                                  142175500                       # Number of ticks from beginning of simulation (restored from checkpoints and never reset)
sim_freq                                 1000000000000                       # Frequency of simulated ticks
host_inst_rate                                1147790                       # Simulator instruction rate (inst/s)
host_op_rate                                  1158734                       # Simulator op (including micro ops) rate (op/s)
host_tick_rate                               38554666                       # Simulator tick rate (ticks/s)
host_mem_usage                                 653852                       # Number of bytes of host memory used
host_seconds                                     3.69                       # Real time elapsed on the host
sim_insts                                     4232588                       # Number of instructions simulated
sim_ops                                       4272968                       # Number of ops (including micro ops) simulated
system.voltage_domain.voltage                       1                       # Voltage in Volts
system.clk_domain.clock                          1000                       # Clock period in ticks
system.mem_ctrls.bytes_read::cpu00.inst       1019224                       # Number of bytes read from this memory
system.mem_ctrls.bytes_read::cpu00.data        151145                       # Number of bytes read from this memory
system.mem_ctrls.bytes_read::cpu01.inst        523072                       # Number of bytes read from this memory
system.mem_ctrls.bytes_read::cpu01.data        137314                       # Number of bytes read from this memory
system.mem_ctrls.bytes_read::cpu02.inst        522400                       # Number of bytes read from this memory
system.mem_ctrls.bytes_read::cpu02.data        137258                       # Number of bytes read from this memory
system.mem_ctrls.bytes_read::cpu03.inst        521728                       # Number of bytes read from this memory
system.mem_ctrls.bytes_read::cpu03.data        137162                       # Number of bytes read from this memory
system.mem_ctrls.bytes_read::cpu04.inst        521056                       # Number of bytes read from this memory
system.mem_ctrls.bytes_read::cpu04.data        137086                       # Number of bytes read from this memory
system.mem_ctrls.bytes_read::cpu05.inst        520420                       # Number of bytes read from this memory
system.mem_ctrls.bytes_read::cpu05.data        136926                       # Number of bytes read from this memory
system.mem_ctrls.bytes_read::cpu06.inst        519828                       # Number of bytes read from this memory
system.mem_ctrls.bytes_read::cpu06.data        136806                       # Number of bytes read from this memory
system.mem_ctrls.bytes_read::cpu07.inst        519156                       # Number of bytes read from this memory
system.mem_ctrls.bytes_read::cpu07.data        136730                       # Number of bytes read from this memory
system.mem_ctrls.bytes_read::cpu08.inst        518484                       # Number of bytes read from this memory
system.mem_ctrls.bytes_read::cpu08.data        136646                       # Number of bytes read from this memory
system.mem_ctrls.bytes_read::cpu09.inst        517812                       # Number of bytes read from this memory
system.mem_ctrls.bytes_read::cpu09.data        136554                       # Number of bytes read from this memory
system.mem_ctrls.bytes_read::cpu10.inst        517176                       # Number of bytes read from this memory
system.mem_ctrls.bytes_read::cpu10.data        136426                       # Number of bytes read from this memory
system.mem_ctrls.bytes_read::cpu11.inst        516584                       # Number of bytes read from this memory
system.mem_ctrls.bytes_read::cpu11.data        136302                       # Number of bytes read from this memory
system.mem_ctrls.bytes_read::cpu12.inst        515912                       # Number of bytes read from this memory
system.mem_ctrls.bytes_read::cpu12.data        136214                       # Number of bytes read from this memory
system.mem_ctrls.bytes_read::cpu13.inst        515240                       # Number of bytes read from this memory
system.mem_ctrls.bytes_read::cpu13.data        136122                       # Number of bytes read from this memory
system.mem_ctrls.bytes_read::cpu14.inst        514568                       # Number of bytes read from this memory
system.mem_ctrls.bytes_read::cpu14.data        136038                       # Number of bytes read from this memory
system.mem_ctrls.bytes_read::cpu15.inst        513896                       # Number of bytes read from this memory
system.mem_ctrls.bytes_read::cpu15.data        135966                       # Number of bytes read from this memory
system.mem_ctrls.bytes_read::cpu16.inst        513340                       # Number of bytes read from this memory
system.mem_ctrls.bytes_read::cpu16.data        135770                       # Number of bytes read from this memory
system.mem_ctrls.bytes_read::cpu17.inst        512668                       # Number of bytes read from this memory
system.mem_ctrls.bytes_read::cpu17.data        135698                       # Number of bytes read from this memory
system.mem_ctrls.bytes_read::cpu18.inst        511996                       # Number of bytes read from this memory
system.mem_ctrls.bytes_read::cpu18.data        135614                       # Number of bytes read from this memory
system.mem_ctrls.bytes_read::cpu19.inst        511324                       # Number of bytes read from this memory
system.mem_ctrls.bytes_read::cpu19.data        135554                       # Number of bytes read from this memory
system.mem_ctrls.bytes_read::cpu20.inst        510636                       # Number of bytes read from this memory
system.mem_ctrls.bytes_read::cpu20.data        135466                       # Number of bytes read from this memory
system.mem_ctrls.bytes_read::cpu21.inst        510096                       # Number of bytes read from this memory
system.mem_ctrls.bytes_read::cpu21.data        135290                       # Number of bytes read from this memory
system.mem_ctrls.bytes_read::cpu22.inst        509424                       # Number of bytes read from this memory
system.mem_ctrls.bytes_read::cpu22.data        135194                       # Number of bytes read from this memory
system.mem_ctrls.bytes_read::cpu23.inst        508752                       # Number of bytes read from this memory
system.mem_ctrls.bytes_read::cpu23.data        135106                       # Number of bytes read from this memory
system.mem_ctrls.bytes_read::cpu24.inst        508080                       # Number of bytes read from this memory
system.mem_ctrls.bytes_read::cpu24.data        135018                       # Number of bytes read from this memory
system.mem_ctrls.bytes_read::cpu25.inst        507408                       # Number of bytes read from this memory
system.mem_ctrls.bytes_read::cpu25.data        134930                       # Number of bytes read from this memory
system.mem_ctrls.bytes_read::cpu26.inst        506772                       # Number of bytes read from this memory
system.mem_ctrls.bytes_read::cpu26.data        134794                       # Number of bytes read from this memory
system.mem_ctrls.bytes_read::cpu27.inst        506180                       # Number of bytes read from this memory
system.mem_ctrls.bytes_read::cpu27.data        134686                       # Number of bytes read from this memory
system.mem_ctrls.bytes_read::cpu28.inst        505508                       # Number of bytes read from this memory
system.mem_ctrls.bytes_read::cpu28.data        134598                       # Number of bytes read from this memory
system.mem_ctrls.bytes_read::cpu29.inst        504836                       # Number of bytes read from this memory
system.mem_ctrls.bytes_read::cpu29.data        134518                       # Number of bytes read from this memory
system.mem_ctrls.bytes_read::cpu30.inst        504164                       # Number of bytes read from this memory
system.mem_ctrls.bytes_read::cpu30.data        134418                       # Number of bytes read from this memory
system.mem_ctrls.bytes_read::cpu31.inst        503476                       # Number of bytes read from this memory
system.mem_ctrls.bytes_read::cpu31.data        134318                       # Number of bytes read from this memory
system.mem_ctrls.bytes_read::total           21292883                       # Number of bytes read from this memory
system.mem_ctrls.bytes_inst_read::cpu00.inst      1019224                       # Number of instructions bytes read from this memory
system.mem_ctrls.bytes_inst_read::cpu01.inst       523072                       # Number of instructions bytes read from this memory
system.mem_ctrls.bytes_inst_read::cpu02.inst       522400                       # Number of instructions bytes read from this memory
system.mem_ctrls.bytes_inst_read::cpu03.inst       521728                       # Number of instructions bytes read from this memory
system.mem_ctrls.bytes_inst_read::cpu04.inst       521056                       # Number of instructions bytes read from this memory
system.mem_ctrls.bytes_inst_read::cpu05.inst       520420                       # Number of instructions bytes read from this memory
system.mem_ctrls.bytes_inst_read::cpu06.inst       519828                       # Number of instructions bytes read from this memory
system.mem_ctrls.bytes_inst_read::cpu07.inst       519156                       # Number of instructions bytes read from this memory
system.mem_ctrls.bytes_inst_read::cpu08.inst       518484                       # Number of instructions bytes read from this memory
system.mem_ctrls.bytes_inst_read::cpu09.inst       517812                       # Number of instructions bytes read from this memory
system.mem_ctrls.bytes_inst_read::cpu10.inst       517176                       # Number of instructions bytes read from this memory
system.mem_ctrls.bytes_inst_read::cpu11.inst       516584                       # Number of instructions bytes read from this memory
system.mem_ctrls.bytes_inst_read::cpu12.inst       515912                       # Number of instructions bytes read from this memory
system.mem_ctrls.bytes_inst_read::cpu13.inst       515240                       # Number of instructions bytes read from this memory
system.mem_ctrls.bytes_inst_read::cpu14.inst       514568                       # Number of instructions bytes read from this memory
system.mem_ctrls.bytes_inst_read::cpu15.inst       513896                       # Number of instructions bytes read from this memory
system.mem_ctrls.bytes_inst_read::cpu16.inst       513340                       # Number of instructions bytes read from this memory
system.mem_ctrls.bytes_inst_read::cpu17.inst       512668                       # Number of instructions bytes read from this memory
system.mem_ctrls.bytes_inst_read::cpu18.inst       511996                       # Number of instructions bytes read from this memory
system.mem_ctrls.bytes_inst_read::cpu19.inst       511324                       # Number of instructions bytes read from this memory
system.mem_ctrls.bytes_inst_read::cpu20.inst       510636                       # Number of instructions bytes read from this memory
system.mem_ctrls.bytes_inst_read::cpu21.inst       510096                       # Number of instructions bytes read from this memory
system.mem_ctrls.bytes_inst_read::cpu22.inst       509424                       # Number of instructions bytes read from this memory
system.mem_ctrls.bytes_inst_read::cpu23.inst       508752                       # Number of instructions bytes read from this memory
system.mem_ctrls.bytes_inst_read::cpu24.inst       508080                       # Number of instructions bytes read from this memory
system.mem_ctrls.bytes_inst_read::cpu25.inst       507408                       # Number of instructions bytes read from this memory
system.mem_ctrls.bytes_inst_read::cpu26.inst       506772                       # Number of instructions bytes read from this memory
system.mem_ctrls.bytes_inst_read::cpu27.inst       506180                       # Number of instructions bytes read from this memory
system.mem_ctrls.bytes_inst_read::cpu28.inst       505508                       # Number of instructions bytes read from this memory
system.mem_ctrls.bytes_inst_read::cpu29.inst       504836                       # Number of instructions bytes read from this memory
system.mem_ctrls.bytes_inst_read::cpu30.inst       504164                       # Number of instructions bytes read from this memory
system.mem_ctrls.bytes_inst_read::cpu31.inst       503476                       # Number of instructions bytes read from this memory
system.mem_ctrls.bytes_inst_read::total      16931216                       # Number of instructions bytes read from this memory
system.mem_ctrls.bytes_written::cpu00.data       185305                       # Number of bytes written to this memory
system.mem_ctrls.bytes_written::cpu01.data         2372                       # Number of bytes written to this memory
system.mem_ctrls.bytes_written::cpu02.data         2372                       # Number of bytes written to this memory
system.mem_ctrls.bytes_written::cpu03.data         2372                       # Number of bytes written to this memory
system.mem_ctrls.bytes_written::cpu04.data         2372                       # Number of bytes written to this memory
system.mem_ctrls.bytes_written::cpu05.data         2352                       # Number of bytes written to this memory
system.mem_ctrls.bytes_written::cpu06.data         2300                       # Number of bytes written to this memory
system.mem_ctrls.bytes_written::cpu07.data         2300                       # Number of bytes written to this memory
system.mem_ctrls.bytes_written::cpu08.data         2300                       # Number of bytes written to this memory
system.mem_ctrls.bytes_written::cpu09.data         2300                       # Number of bytes written to this memory
system.mem_ctrls.bytes_written::cpu10.data         2280                       # Number of bytes written to this memory
system.mem_ctrls.bytes_written::cpu11.data         2228                       # Number of bytes written to this memory
system.mem_ctrls.bytes_written::cpu12.data         2228                       # Number of bytes written to this memory
system.mem_ctrls.bytes_written::cpu13.data         2228                       # Number of bytes written to this memory
system.mem_ctrls.bytes_written::cpu14.data         2228                       # Number of bytes written to this memory
system.mem_ctrls.bytes_written::cpu15.data         2228                       # Number of bytes written to this memory
system.mem_ctrls.bytes_written::cpu16.data         2156                       # Number of bytes written to this memory
system.mem_ctrls.bytes_written::cpu17.data         2156                       # Number of bytes written to this memory
system.mem_ctrls.bytes_written::cpu18.data         2156                       # Number of bytes written to this memory
system.mem_ctrls.bytes_written::cpu19.data         2156                       # Number of bytes written to this memory
system.mem_ctrls.bytes_written::cpu20.data         2176                       # Number of bytes written to this memory
system.mem_ctrls.bytes_written::cpu21.data         2084                       # Number of bytes written to this memory
system.mem_ctrls.bytes_written::cpu22.data         2084                       # Number of bytes written to this memory
system.mem_ctrls.bytes_written::cpu23.data         2084                       # Number of bytes written to this memory
system.mem_ctrls.bytes_written::cpu24.data         2084                       # Number of bytes written to this memory
system.mem_ctrls.bytes_written::cpu25.data         2084                       # Number of bytes written to this memory
system.mem_ctrls.bytes_written::cpu26.data         2064                       # Number of bytes written to this memory
system.mem_ctrls.bytes_written::cpu27.data         2012                       # Number of bytes written to this memory
system.mem_ctrls.bytes_written::cpu28.data         2012                       # Number of bytes written to this memory
system.mem_ctrls.bytes_written::cpu29.data         2012                       # Number of bytes written to this memory
system.mem_ctrls.bytes_written::cpu30.data         2012                       # Number of bytes written to this memory
system.mem_ctrls.bytes_written::cpu31.data         2032                       # Number of bytes written to this memory
system.mem_ctrls.bytes_written::total          253129                       # Number of bytes written to this memory
system.mem_ctrls.num_reads::cpu00.inst         254806                       # Number of read requests responded to by this memory
system.mem_ctrls.num_reads::cpu00.data          37195                       # Number of read requests responded to by this memory
system.mem_ctrls.num_reads::cpu01.inst         130768                       # Number of read requests responded to by this memory
system.mem_ctrls.num_reads::cpu01.data          34228                       # Number of read requests responded to by this memory
system.mem_ctrls.num_reads::cpu02.inst         130600                       # Number of read requests responded to by this memory
system.mem_ctrls.num_reads::cpu02.data          34215                       # Number of read requests responded to by this memory
system.mem_ctrls.num_reads::cpu03.inst         130432                       # Number of read requests responded to by this memory
system.mem_ctrls.num_reads::cpu03.data          34190                       # Number of read requests responded to by this memory
system.mem_ctrls.num_reads::cpu04.inst         130264                       # Number of read requests responded to by this memory
system.mem_ctrls.num_reads::cpu04.data          34172                       # Number of read requests responded to by this memory
system.mem_ctrls.num_reads::cpu05.inst         130105                       # Number of read requests responded to by this memory
system.mem_ctrls.num_reads::cpu05.data          34135                       # Number of read requests responded to by this memory
system.mem_ctrls.num_reads::cpu06.inst         129957                       # Number of read requests responded to by this memory
system.mem_ctrls.num_reads::cpu06.data          34113                       # Number of read requests responded to by this memory
system.mem_ctrls.num_reads::cpu07.inst         129789                       # Number of read requests responded to by this memory
system.mem_ctrls.num_reads::cpu07.data          34094                       # Number of read requests responded to by this memory
system.mem_ctrls.num_reads::cpu08.inst         129621                       # Number of read requests responded to by this memory
system.mem_ctrls.num_reads::cpu08.data          34074                       # Number of read requests responded to by this memory
system.mem_ctrls.num_reads::cpu09.inst         129453                       # Number of read requests responded to by this memory
system.mem_ctrls.num_reads::cpu09.data          34050                       # Number of read requests responded to by this memory
system.mem_ctrls.num_reads::cpu10.inst         129294                       # Number of read requests responded to by this memory
system.mem_ctrls.num_reads::cpu10.data          34022                       # Number of read requests responded to by this memory
system.mem_ctrls.num_reads::cpu11.inst         129146                       # Number of read requests responded to by this memory
system.mem_ctrls.num_reads::cpu11.data          33999                       # Number of read requests responded to by this memory
system.mem_ctrls.num_reads::cpu12.inst         128978                       # Number of read requests responded to by this memory
system.mem_ctrls.num_reads::cpu12.data          33978                       # Number of read requests responded to by this memory
system.mem_ctrls.num_reads::cpu13.inst         128810                       # Number of read requests responded to by this memory
system.mem_ctrls.num_reads::cpu13.data          33954                       # Number of read requests responded to by this memory
system.mem_ctrls.num_reads::cpu14.inst         128642                       # Number of read requests responded to by this memory
system.mem_ctrls.num_reads::cpu14.data          33934                       # Number of read requests responded to by this memory
system.mem_ctrls.num_reads::cpu15.inst         128474                       # Number of read requests responded to by this memory
system.mem_ctrls.num_reads::cpu15.data          33915                       # Number of read requests responded to by this memory
system.mem_ctrls.num_reads::cpu16.inst         128335                       # Number of read requests responded to by this memory
system.mem_ctrls.num_reads::cpu16.data          33878                       # Number of read requests responded to by this memory
system.mem_ctrls.num_reads::cpu17.inst         128167                       # Number of read requests responded to by this memory
system.mem_ctrls.num_reads::cpu17.data          33860                       # Number of read requests responded to by this memory
system.mem_ctrls.num_reads::cpu18.inst         127999                       # Number of read requests responded to by this memory
system.mem_ctrls.num_reads::cpu18.data          33840                       # Number of read requests responded to by this memory
system.mem_ctrls.num_reads::cpu19.inst         127831                       # Number of read requests responded to by this memory
system.mem_ctrls.num_reads::cpu19.data          33824                       # Number of read requests responded to by this memory
system.mem_ctrls.num_reads::cpu20.inst         127659                       # Number of read requests responded to by this memory
system.mem_ctrls.num_reads::cpu20.data          33801                       # Number of read requests responded to by this memory
system.mem_ctrls.num_reads::cpu21.inst         127524                       # Number of read requests responded to by this memory
system.mem_ctrls.num_reads::cpu21.data          33770                       # Number of read requests responded to by this memory
system.mem_ctrls.num_reads::cpu22.inst         127356                       # Number of read requests responded to by this memory
system.mem_ctrls.num_reads::cpu22.data          33746                       # Number of read requests responded to by this memory
system.mem_ctrls.num_reads::cpu23.inst         127188                       # Number of read requests responded to by this memory
system.mem_ctrls.num_reads::cpu23.data          33724                       # Number of read requests responded to by this memory
system.mem_ctrls.num_reads::cpu24.inst         127020                       # Number of read requests responded to by this memory
system.mem_ctrls.num_reads::cpu24.data          33703                       # Number of read requests responded to by this memory
system.mem_ctrls.num_reads::cpu25.inst         126852                       # Number of read requests responded to by this memory
system.mem_ctrls.num_reads::cpu25.data          33680                       # Number of read requests responded to by this memory
system.mem_ctrls.num_reads::cpu26.inst         126693                       # Number of read requests responded to by this memory
system.mem_ctrls.num_reads::cpu26.data          33650                       # Number of read requests responded to by this memory
system.mem_ctrls.num_reads::cpu27.inst         126545                       # Number of read requests responded to by this memory
system.mem_ctrls.num_reads::cpu27.data          33631                       # Number of read requests responded to by this memory
system.mem_ctrls.num_reads::cpu28.inst         126377                       # Number of read requests responded to by this memory
system.mem_ctrls.num_reads::cpu28.data          33610                       # Number of read requests responded to by this memory
system.mem_ctrls.num_reads::cpu29.inst         126209                       # Number of read requests responded to by this memory
system.mem_ctrls.num_reads::cpu29.data          33589                       # Number of read requests responded to by this memory
system.mem_ctrls.num_reads::cpu30.inst         126041                       # Number of read requests responded to by this memory
system.mem_ctrls.num_reads::cpu30.data          33565                       # Number of read requests responded to by this memory
system.mem_ctrls.num_reads::cpu31.inst         125869                       # Number of read requests responded to by this memory
system.mem_ctrls.num_reads::cpu31.data          33537                       # Number of read requests responded to by this memory
system.mem_ctrls.num_reads::total             5320480                       # Number of read requests responded to by this memory
system.mem_ctrls.num_writes::cpu00.data         46509                       # Number of write requests responded to by this memory
system.mem_ctrls.num_writes::cpu01.data           593                       # Number of write requests responded to by this memory
system.mem_ctrls.num_writes::cpu02.data           593                       # Number of write requests responded to by this memory
system.mem_ctrls.num_writes::cpu03.data           593                       # Number of write requests responded to by this memory
system.mem_ctrls.num_writes::cpu04.data           593                       # Number of write requests responded to by this memory
system.mem_ctrls.num_writes::cpu05.data           588                       # Number of write requests responded to by this memory
system.mem_ctrls.num_writes::cpu06.data           575                       # Number of write requests responded to by this memory
system.mem_ctrls.num_writes::cpu07.data           575                       # Number of write requests responded to by this memory
system.mem_ctrls.num_writes::cpu08.data           575                       # Number of write requests responded to by this memory
system.mem_ctrls.num_writes::cpu09.data           575                       # Number of write requests responded to by this memory
system.mem_ctrls.num_writes::cpu10.data           570                       # Number of write requests responded to by this memory
system.mem_ctrls.num_writes::cpu11.data           557                       # Number of write requests responded to by this memory
system.mem_ctrls.num_writes::cpu12.data           557                       # Number of write requests responded to by this memory
system.mem_ctrls.num_writes::cpu13.data           557                       # Number of write requests responded to by this memory
system.mem_ctrls.num_writes::cpu14.data           557                       # Number of write requests responded to by this memory
system.mem_ctrls.num_writes::cpu15.data           557                       # Number of write requests responded to by this memory
system.mem_ctrls.num_writes::cpu16.data           539                       # Number of write requests responded to by this memory
system.mem_ctrls.num_writes::cpu17.data           539                       # Number of write requests responded to by this memory
system.mem_ctrls.num_writes::cpu18.data           539                       # Number of write requests responded to by this memory
system.mem_ctrls.num_writes::cpu19.data           539                       # Number of write requests responded to by this memory
system.mem_ctrls.num_writes::cpu20.data           544                       # Number of write requests responded to by this memory
system.mem_ctrls.num_writes::cpu21.data           521                       # Number of write requests responded to by this memory
system.mem_ctrls.num_writes::cpu22.data           521                       # Number of write requests responded to by this memory
system.mem_ctrls.num_writes::cpu23.data           521                       # Number of write requests responded to by this memory
system.mem_ctrls.num_writes::cpu24.data           521                       # Number of write requests responded to by this memory
system.mem_ctrls.num_writes::cpu25.data           521                       # Number of write requests responded to by this memory
system.mem_ctrls.num_writes::cpu26.data           516                       # Number of write requests responded to by this memory
system.mem_ctrls.num_writes::cpu27.data           503                       # Number of write requests responded to by this memory
system.mem_ctrls.num_writes::cpu28.data           503                       # Number of write requests responded to by this memory
system.mem_ctrls.num_writes::cpu29.data           503                       # Number of write requests responded to by this memory
system.mem_ctrls.num_writes::cpu30.data           503                       # Number of write requests responded to by this memory
system.mem_ctrls.num_writes::cpu31.data           508                       # Number of write requests responded to by this memory
system.mem_ctrls.num_writes::total              63465                       # Number of write requests responded to by this memory
system.mem_ctrls.bw_read::cpu00.inst       7168773804                       # Total read bandwidth from this memory (bytes/s)
system.mem_ctrls.bw_read::cpu00.data       1063087522                       # Total read bandwidth from this memory (bytes/s)
system.mem_ctrls.bw_read::cpu01.inst       3679058628                       # Total read bandwidth from this memory (bytes/s)
system.mem_ctrls.bw_read::cpu01.data        965806345                       # Total read bandwidth from this memory (bytes/s)
system.mem_ctrls.bw_read::cpu02.inst       3674332075                       # Total read bandwidth from this memory (bytes/s)
system.mem_ctrls.bw_read::cpu02.data        965412466                       # Total read bandwidth from this memory (bytes/s)
system.mem_ctrls.bw_read::cpu03.inst       3669605523                       # Total read bandwidth from this memory (bytes/s)
system.mem_ctrls.bw_read::cpu03.data        964737244                       # Total read bandwidth from this memory (bytes/s)
system.mem_ctrls.bw_read::cpu04.inst       3664878970                       # Total read bandwidth from this memory (bytes/s)
system.mem_ctrls.bw_read::cpu04.data        964202693                       # Total read bandwidth from this memory (bytes/s)
system.mem_ctrls.bw_read::cpu05.inst       3660405625                       # Total read bandwidth from this memory (bytes/s)
system.mem_ctrls.bw_read::cpu05.data        963077323                       # Total read bandwidth from this memory (bytes/s)
system.mem_ctrls.bw_read::cpu06.inst       3656241758                       # Total read bandwidth from this memory (bytes/s)
system.mem_ctrls.bw_read::cpu06.data        962233296                       # Total read bandwidth from this memory (bytes/s)
system.mem_ctrls.bw_read::cpu07.inst       3651515205                       # Total read bandwidth from this memory (bytes/s)
system.mem_ctrls.bw_read::cpu07.data        961698746                       # Total read bandwidth from this memory (bytes/s)
system.mem_ctrls.bw_read::cpu08.inst       3646788652                       # Total read bandwidth from this memory (bytes/s)
system.mem_ctrls.bw_read::cpu08.data        961107926                       # Total read bandwidth from this memory (bytes/s)
system.mem_ctrls.bw_read::cpu09.inst       3642062099                       # Total read bandwidth from this memory (bytes/s)
system.mem_ctrls.bw_read::cpu09.data        960460839                       # Total read bandwidth from this memory (bytes/s)
system.mem_ctrls.bw_read::cpu10.inst       3637588755                       # Total read bandwidth from this memory (bytes/s)
system.mem_ctrls.bw_read::cpu10.data        959560543                       # Total read bandwidth from this memory (bytes/s)
system.mem_ctrls.bw_read::cpu11.inst       3633424887                       # Total read bandwidth from this memory (bytes/s)
system.mem_ctrls.bw_read::cpu11.data        958688382                       # Total read bandwidth from this memory (bytes/s)
system.mem_ctrls.bw_read::cpu12.inst       3628698334                       # Total read bandwidth from this memory (bytes/s)
system.mem_ctrls.bw_read::cpu12.data        958069428                       # Total read bandwidth from this memory (bytes/s)
system.mem_ctrls.bw_read::cpu13.inst       3623971781                       # Total read bandwidth from this memory (bytes/s)
system.mem_ctrls.bw_read::cpu13.data        957422341                       # Total read bandwidth from this memory (bytes/s)
system.mem_ctrls.bw_read::cpu14.inst       3619245229                       # Total read bandwidth from this memory (bytes/s)
system.mem_ctrls.bw_read::cpu14.data        956831522                       # Total read bandwidth from this memory (bytes/s)
system.mem_ctrls.bw_read::cpu15.inst       3614518676                       # Total read bandwidth from this memory (bytes/s)
system.mem_ctrls.bw_read::cpu15.data        956325105                       # Total read bandwidth from this memory (bytes/s)
system.mem_ctrls.bw_read::cpu16.inst       3610608016                       # Total read bandwidth from this memory (bytes/s)
system.mem_ctrls.bw_read::cpu16.data        954946527                       # Total read bandwidth from this memory (bytes/s)
system.mem_ctrls.bw_read::cpu17.inst       3605881463                       # Total read bandwidth from this memory (bytes/s)
system.mem_ctrls.bw_read::cpu17.data        954440111                       # Total read bandwidth from this memory (bytes/s)
system.mem_ctrls.bw_read::cpu18.inst       3601154911                       # Total read bandwidth from this memory (bytes/s)
system.mem_ctrls.bw_read::cpu18.data        953849292                       # Total read bandwidth from this memory (bytes/s)
system.mem_ctrls.bw_read::cpu19.inst       3596428358                       # Total read bandwidth from this memory (bytes/s)
system.mem_ctrls.bw_read::cpu19.data        953427278                       # Total read bandwidth from this memory (bytes/s)
system.mem_ctrls.bw_read::cpu20.inst       3591589268                       # Total read bandwidth from this memory (bytes/s)
system.mem_ctrls.bw_read::cpu20.data        952808325                       # Total read bandwidth from this memory (bytes/s)
system.mem_ctrls.bw_read::cpu21.inst       3587791145                       # Total read bandwidth from this memory (bytes/s)
system.mem_ctrls.bw_read::cpu21.data        951570418                       # Total read bandwidth from this memory (bytes/s)
system.mem_ctrls.bw_read::cpu22.inst       3583064593                       # Total read bandwidth from this memory (bytes/s)
system.mem_ctrls.bw_read::cpu22.data        950895196                       # Total read bandwidth from this memory (bytes/s)
system.mem_ctrls.bw_read::cpu23.inst       3578338040                       # Total read bandwidth from this memory (bytes/s)
system.mem_ctrls.bw_read::cpu23.data        950276243                       # Total read bandwidth from this memory (bytes/s)
system.mem_ctrls.bw_read::cpu24.inst       3573611487                       # Total read bandwidth from this memory (bytes/s)
system.mem_ctrls.bw_read::cpu24.data        949657290                       # Total read bandwidth from this memory (bytes/s)
system.mem_ctrls.bw_read::cpu25.inst       3568884934                       # Total read bandwidth from this memory (bytes/s)
system.mem_ctrls.bw_read::cpu25.data        949038336                       # Total read bandwidth from this memory (bytes/s)
system.mem_ctrls.bw_read::cpu26.inst       3564411590                       # Total read bandwidth from this memory (bytes/s)
system.mem_ctrls.bw_read::cpu26.data        948081772                       # Total read bandwidth from this memory (bytes/s)
system.mem_ctrls.bw_read::cpu27.inst       3560247722                       # Total read bandwidth from this memory (bytes/s)
system.mem_ctrls.bw_read::cpu27.data        947322148                       # Total read bandwidth from this memory (bytes/s)
system.mem_ctrls.bw_read::cpu28.inst       3555521169                       # Total read bandwidth from this memory (bytes/s)
system.mem_ctrls.bw_read::cpu28.data        946703194                       # Total read bandwidth from this memory (bytes/s)
system.mem_ctrls.bw_read::cpu29.inst       3550794617                       # Total read bandwidth from this memory (bytes/s)
system.mem_ctrls.bw_read::cpu29.data        946140509                       # Total read bandwidth from this memory (bytes/s)
system.mem_ctrls.bw_read::cpu30.inst       3546068064                       # Total read bandwidth from this memory (bytes/s)
system.mem_ctrls.bw_read::cpu30.data        945437153                       # Total read bandwidth from this memory (bytes/s)
system.mem_ctrls.bw_read::cpu31.inst       3541228974                       # Total read bandwidth from this memory (bytes/s)
system.mem_ctrls.bw_read::cpu31.data        944733797                       # Total read bandwidth from this memory (bytes/s)
system.mem_ctrls.bw_read::total          149764783665                       # Total read bandwidth from this memory (bytes/s)
system.mem_ctrls.bw_inst_read::cpu00.inst   7168773804                       # Instruction read bandwidth from this memory (bytes/s)
system.mem_ctrls.bw_inst_read::cpu01.inst   3679058628                       # Instruction read bandwidth from this memory (bytes/s)
system.mem_ctrls.bw_inst_read::cpu02.inst   3674332075                       # Instruction read bandwidth from this memory (bytes/s)
system.mem_ctrls.bw_inst_read::cpu03.inst   3669605523                       # Instruction read bandwidth from this memory (bytes/s)
system.mem_ctrls.bw_inst_read::cpu04.inst   3664878970                       # Instruction read bandwidth from this memory (bytes/s)
system.mem_ctrls.bw_inst_read::cpu05.inst   3660405625                       # Instruction read bandwidth from this memory (bytes/s)
system.mem_ctrls.bw_inst_read::cpu06.inst   3656241758                       # Instruction read bandwidth from this memory (bytes/s)
system.mem_ctrls.bw_inst_read::cpu07.inst   3651515205                       # Instruction read bandwidth from this memory (bytes/s)
system.mem_ctrls.bw_inst_read::cpu08.inst   3646788652                       # Instruction read bandwidth from this memory (bytes/s)
system.mem_ctrls.bw_inst_read::cpu09.inst   3642062099                       # Instruction read bandwidth from this memory (bytes/s)
system.mem_ctrls.bw_inst_read::cpu10.inst   3637588755                       # Instruction read bandwidth from this memory (bytes/s)
system.mem_ctrls.bw_inst_read::cpu11.inst   3633424887                       # Instruction read bandwidth from this memory (bytes/s)
system.mem_ctrls.bw_inst_read::cpu12.inst   3628698334                       # Instruction read bandwidth from this memory (bytes/s)
system.mem_ctrls.bw_inst_read::cpu13.inst   3623971781                       # Instruction read bandwidth from this memory (bytes/s)
system.mem_ctrls.bw_inst_read::cpu14.inst   3619245229                       # Instruction read bandwidth from this memory (bytes/s)
system.mem_ctrls.bw_inst_read::cpu15.inst   3614518676                       # Instruction read bandwidth from this memory (bytes/s)
system.mem_ctrls.bw_inst_read::cpu16.inst   3610608016                       # Instruction read bandwidth from this memory (bytes/s)
system.mem_ctrls.bw_inst_read::cpu17.inst   3605881463                       # Instruction read bandwidth from this memory (bytes/s)
system.mem_ctrls.bw_inst_read::cpu18.inst   3601154911                       # Instruction read bandwidth from this memory (bytes/s)
system.mem_ctrls.bw_inst_read::cpu19.inst   3596428358                       # Instruction read bandwidth from this memory (bytes/s)
system.mem_ctrls.bw_inst_read::cpu20.inst   3591589268                       # Instruction read bandwidth from this memory (bytes/s)
system.mem_ctrls.bw_inst_read::cpu21.inst   3587791145                       # Instruction read bandwidth from this memory (bytes/s)
system.mem_ctrls.bw_inst_read::cpu22.inst   3583064593                       # Instruction read bandwidth from this memory (bytes/s)
system.mem_ctrls.bw_inst_read::cpu23.inst   3578338040                       # Instruction read bandwidth from this memory (bytes/s)
system.mem_ctrls.bw_inst_read::cpu24.inst   3573611487                       # Instruction read bandwidth from this memory (bytes/s)
system.mem_ctrls.bw_inst_read::cpu25.inst   3568884934                       # Instruction read bandwidth from this memory (bytes/s)
system.mem_ctrls.bw_inst_read::cpu26.inst   3564411590                       # Instruction read bandwidth from this memory (bytes/s)
system.mem_ctrls.bw_inst_read::cpu27.inst   3560247722                       # Instruction read bandwidth from this memory (bytes/s)
system.mem_ctrls.bw_inst_read::cpu28.inst   3555521169                       # Instruction read bandwidth from this memory (bytes/s)
system.mem_ctrls.bw_inst_read::cpu29.inst   3550794617                       # Instruction read bandwidth from this memory (bytes/s)
system.mem_ctrls.bw_inst_read::cpu30.inst   3546068064                       # Instruction read bandwidth from this memory (bytes/s)
system.mem_ctrls.bw_inst_read::cpu31.inst   3541228974                       # Instruction read bandwidth from this memory (bytes/s)
system.mem_ctrls.bw_inst_read::total     119086734353                       # Instruction read bandwidth from this memory (bytes/s)
system.mem_ctrls.bw_write::cpu00.data      1303353953                       # Write bandwidth from this memory (bytes/s)
system.mem_ctrls.bw_write::cpu01.data        16683606                       # Write bandwidth from this memory (bytes/s)
system.mem_ctrls.bw_write::cpu02.data        16683606                       # Write bandwidth from this memory (bytes/s)
system.mem_ctrls.bw_write::cpu03.data        16683606                       # Write bandwidth from this memory (bytes/s)
system.mem_ctrls.bw_write::cpu04.data        16683606                       # Write bandwidth from this memory (bytes/s)
system.mem_ctrls.bw_write::cpu05.data        16542935                       # Write bandwidth from this memory (bytes/s)
system.mem_ctrls.bw_write::cpu06.data        16177189                       # Write bandwidth from this memory (bytes/s)
system.mem_ctrls.bw_write::cpu07.data        16177189                       # Write bandwidth from this memory (bytes/s)
system.mem_ctrls.bw_write::cpu08.data        16177189                       # Write bandwidth from this memory (bytes/s)
system.mem_ctrls.bw_write::cpu09.data        16177189                       # Write bandwidth from this memory (bytes/s)
system.mem_ctrls.bw_write::cpu10.data        16036518                       # Write bandwidth from this memory (bytes/s)
system.mem_ctrls.bw_write::cpu11.data        15670773                       # Write bandwidth from this memory (bytes/s)
system.mem_ctrls.bw_write::cpu12.data        15670773                       # Write bandwidth from this memory (bytes/s)
system.mem_ctrls.bw_write::cpu13.data        15670773                       # Write bandwidth from this memory (bytes/s)
system.mem_ctrls.bw_write::cpu14.data        15670773                       # Write bandwidth from this memory (bytes/s)
system.mem_ctrls.bw_write::cpu15.data        15670773                       # Write bandwidth from this memory (bytes/s)
system.mem_ctrls.bw_write::cpu16.data        15164357                       # Write bandwidth from this memory (bytes/s)
system.mem_ctrls.bw_write::cpu17.data        15164357                       # Write bandwidth from this memory (bytes/s)
system.mem_ctrls.bw_write::cpu18.data        15164357                       # Write bandwidth from this memory (bytes/s)
system.mem_ctrls.bw_write::cpu19.data        15164357                       # Write bandwidth from this memory (bytes/s)
system.mem_ctrls.bw_write::cpu20.data        15305028                       # Write bandwidth from this memory (bytes/s)
system.mem_ctrls.bw_write::cpu21.data        14657940                       # Write bandwidth from this memory (bytes/s)
system.mem_ctrls.bw_write::cpu22.data        14657940                       # Write bandwidth from this memory (bytes/s)
system.mem_ctrls.bw_write::cpu23.data        14657940                       # Write bandwidth from this memory (bytes/s)
system.mem_ctrls.bw_write::cpu24.data        14657940                       # Write bandwidth from this memory (bytes/s)
system.mem_ctrls.bw_write::cpu25.data        14657940                       # Write bandwidth from this memory (bytes/s)
system.mem_ctrls.bw_write::cpu26.data        14517269                       # Write bandwidth from this memory (bytes/s)
system.mem_ctrls.bw_write::cpu27.data        14151524                       # Write bandwidth from this memory (bytes/s)
system.mem_ctrls.bw_write::cpu28.data        14151524                       # Write bandwidth from this memory (bytes/s)
system.mem_ctrls.bw_write::cpu29.data        14151524                       # Write bandwidth from this memory (bytes/s)
system.mem_ctrls.bw_write::cpu30.data        14151524                       # Write bandwidth from this memory (bytes/s)
system.mem_ctrls.bw_write::cpu31.data        14292195                       # Write bandwidth from this memory (bytes/s)
system.mem_ctrls.bw_write::total           1780398170                       # Write bandwidth from this memory (bytes/s)
system.mem_ctrls.bw_total::cpu00.inst      7168773804                       # Total bandwidth to/from this memory (bytes/s)
system.mem_ctrls.bw_total::cpu00.data      2366441476                       # Total bandwidth to/from this memory (bytes/s)
system.mem_ctrls.bw_total::cpu01.inst      3679058628                       # Total bandwidth to/from this memory (bytes/s)
system.mem_ctrls.bw_total::cpu01.data       982489951                       # Total bandwidth to/from this memory (bytes/s)
system.mem_ctrls.bw_total::cpu02.inst      3674332075                       # Total bandwidth to/from this memory (bytes/s)
system.mem_ctrls.bw_total::cpu02.data       982096071                       # Total bandwidth to/from this memory (bytes/s)
system.mem_ctrls.bw_total::cpu03.inst      3669605523                       # Total bandwidth to/from this memory (bytes/s)
system.mem_ctrls.bw_total::cpu03.data       981420850                       # Total bandwidth to/from this memory (bytes/s)
system.mem_ctrls.bw_total::cpu04.inst      3664878970                       # Total bandwidth to/from this memory (bytes/s)
system.mem_ctrls.bw_total::cpu04.data       980886299                       # Total bandwidth to/from this memory (bytes/s)
system.mem_ctrls.bw_total::cpu05.inst      3660405625                       # Total bandwidth to/from this memory (bytes/s)
system.mem_ctrls.bw_total::cpu05.data       979620258                       # Total bandwidth to/from this memory (bytes/s)
system.mem_ctrls.bw_total::cpu06.inst      3656241758                       # Total bandwidth to/from this memory (bytes/s)
system.mem_ctrls.bw_total::cpu06.data       978410486                       # Total bandwidth to/from this memory (bytes/s)
system.mem_ctrls.bw_total::cpu07.inst      3651515205                       # Total bandwidth to/from this memory (bytes/s)
system.mem_ctrls.bw_total::cpu07.data       977875935                       # Total bandwidth to/from this memory (bytes/s)
system.mem_ctrls.bw_total::cpu08.inst      3646788652                       # Total bandwidth to/from this memory (bytes/s)
system.mem_ctrls.bw_total::cpu08.data       977285116                       # Total bandwidth to/from this memory (bytes/s)
system.mem_ctrls.bw_total::cpu09.inst      3642062099                       # Total bandwidth to/from this memory (bytes/s)
system.mem_ctrls.bw_total::cpu09.data       976638028                       # Total bandwidth to/from this memory (bytes/s)
system.mem_ctrls.bw_total::cpu10.inst      3637588755                       # Total bandwidth to/from this memory (bytes/s)
system.mem_ctrls.bw_total::cpu10.data       975597061                       # Total bandwidth to/from this memory (bytes/s)
system.mem_ctrls.bw_total::cpu11.inst      3633424887                       # Total bandwidth to/from this memory (bytes/s)
system.mem_ctrls.bw_total::cpu11.data       974359155                       # Total bandwidth to/from this memory (bytes/s)
system.mem_ctrls.bw_total::cpu12.inst      3628698334                       # Total bandwidth to/from this memory (bytes/s)
system.mem_ctrls.bw_total::cpu12.data       973740201                       # Total bandwidth to/from this memory (bytes/s)
system.mem_ctrls.bw_total::cpu13.inst      3623971781                       # Total bandwidth to/from this memory (bytes/s)
system.mem_ctrls.bw_total::cpu13.data       973093114                       # Total bandwidth to/from this memory (bytes/s)
system.mem_ctrls.bw_total::cpu14.inst      3619245229                       # Total bandwidth to/from this memory (bytes/s)
system.mem_ctrls.bw_total::cpu14.data       972502295                       # Total bandwidth to/from this memory (bytes/s)
system.mem_ctrls.bw_total::cpu15.inst      3614518676                       # Total bandwidth to/from this memory (bytes/s)
system.mem_ctrls.bw_total::cpu15.data       971995878                       # Total bandwidth to/from this memory (bytes/s)
system.mem_ctrls.bw_total::cpu16.inst      3610608016                       # Total bandwidth to/from this memory (bytes/s)
system.mem_ctrls.bw_total::cpu16.data       970110884                       # Total bandwidth to/from this memory (bytes/s)
system.mem_ctrls.bw_total::cpu17.inst      3605881463                       # Total bandwidth to/from this memory (bytes/s)
system.mem_ctrls.bw_total::cpu17.data       969604468                       # Total bandwidth to/from this memory (bytes/s)
system.mem_ctrls.bw_total::cpu18.inst      3601154911                       # Total bandwidth to/from this memory (bytes/s)
system.mem_ctrls.bw_total::cpu18.data       969013649                       # Total bandwidth to/from this memory (bytes/s)
system.mem_ctrls.bw_total::cpu19.inst      3596428358                       # Total bandwidth to/from this memory (bytes/s)
system.mem_ctrls.bw_total::cpu19.data       968591635                       # Total bandwidth to/from this memory (bytes/s)
system.mem_ctrls.bw_total::cpu20.inst      3591589268                       # Total bandwidth to/from this memory (bytes/s)
system.mem_ctrls.bw_total::cpu20.data       968113353                       # Total bandwidth to/from this memory (bytes/s)
system.mem_ctrls.bw_total::cpu21.inst      3587791145                       # Total bandwidth to/from this memory (bytes/s)
system.mem_ctrls.bw_total::cpu21.data       966228359                       # Total bandwidth to/from this memory (bytes/s)
system.mem_ctrls.bw_total::cpu22.inst      3583064593                       # Total bandwidth to/from this memory (bytes/s)
system.mem_ctrls.bw_total::cpu22.data       965553137                       # Total bandwidth to/from this memory (bytes/s)
system.mem_ctrls.bw_total::cpu23.inst      3578338040                       # Total bandwidth to/from this memory (bytes/s)
system.mem_ctrls.bw_total::cpu23.data       964934183                       # Total bandwidth to/from this memory (bytes/s)
system.mem_ctrls.bw_total::cpu24.inst      3573611487                       # Total bandwidth to/from this memory (bytes/s)
system.mem_ctrls.bw_total::cpu24.data       964315230                       # Total bandwidth to/from this memory (bytes/s)
system.mem_ctrls.bw_total::cpu25.inst      3568884934                       # Total bandwidth to/from this memory (bytes/s)
system.mem_ctrls.bw_total::cpu25.data       963696277                       # Total bandwidth to/from this memory (bytes/s)
system.mem_ctrls.bw_total::cpu26.inst      3564411590                       # Total bandwidth to/from this memory (bytes/s)
system.mem_ctrls.bw_total::cpu26.data       962599041                       # Total bandwidth to/from this memory (bytes/s)
system.mem_ctrls.bw_total::cpu27.inst      3560247722                       # Total bandwidth to/from this memory (bytes/s)
system.mem_ctrls.bw_total::cpu27.data       961473672                       # Total bandwidth to/from this memory (bytes/s)
system.mem_ctrls.bw_total::cpu28.inst      3555521169                       # Total bandwidth to/from this memory (bytes/s)
system.mem_ctrls.bw_total::cpu28.data       960854718                       # Total bandwidth to/from this memory (bytes/s)
system.mem_ctrls.bw_total::cpu29.inst      3550794617                       # Total bandwidth to/from this memory (bytes/s)
system.mem_ctrls.bw_total::cpu29.data       960292033                       # Total bandwidth to/from this memory (bytes/s)
system.mem_ctrls.bw_total::cpu30.inst      3546068064                       # Total bandwidth to/from this memory (bytes/s)
system.mem_ctrls.bw_total::cpu30.data       959588677                       # Total bandwidth to/from this memory (bytes/s)
system.mem_ctrls.bw_total::cpu31.inst      3541228974                       # Total bandwidth to/from this memory (bytes/s)
system.mem_ctrls.bw_total::cpu31.data       959025993                       # Total bandwidth to/from this memory (bytes/s)
system.mem_ctrls.bw_total::total         151545181835                       # Total bandwidth to/from this memory (bytes/s)
system.mem_ctrls.readReqs                           0                       # Number of read requests accepted
system.mem_ctrls.writeReqs                          0                       # Number of write requests accepted
system.mem_ctrls.readBursts                         0                       # Number of DRAM read bursts, including those serviced by the write queue
system.mem_ctrls.writeBursts                        0                       # Number of DRAM write bursts, including those merged in the write queue
system.mem_ctrls.bytesReadDRAM                      0                       # Total number of bytes read from DRAM
system.mem_ctrls.bytesReadWrQ                       0                       # Total number of bytes read from write queue
system.mem_ctrls.bytesWritten                       0                       # Total number of bytes written to DRAM
system.mem_ctrls.bytesReadSys                       0                       # Total read bytes from the system interface side
system.mem_ctrls.bytesWrittenSys                    0                       # Total written bytes from the system interface side
system.mem_ctrls.servicedByWrQ                      0                       # Number of DRAM read bursts serviced by the write queue
system.mem_ctrls.mergedWrBursts                     0                       # Number of DRAM write bursts merged with an existing one
system.mem_ctrls.neitherReadNorWriteReqs            0                       # Number of requests that are neither read nor write
system.mem_ctrls.perBankRdBursts::0                 0                       # Per bank write bursts
system.mem_ctrls.perBankRdBursts::1                 0                       # Per bank write bursts
system.mem_ctrls.perBankRdBursts::2                 0                       # Per bank write bursts
system.mem_ctrls.perBankRdBursts::3                 0                       # Per bank write bursts
system.mem_ctrls.perBankRdBursts::4                 0                       # Per bank write bursts
system.mem_ctrls.perBankRdBursts::5                 0                       # Per bank write bursts
system.mem_ctrls.perBankRdBursts::6                 0                       # Per bank write bursts
system.mem_ctrls.perBankRdBursts::7                 0                       # Per bank write bursts
system.mem_ctrls.perBankRdBursts::8                 0                       # Per bank write bursts
system.mem_ctrls.perBankRdBursts::9                 0                       # Per bank write bursts
system.mem_ctrls.perBankRdBursts::10                0                       # Per bank write bursts
system.mem_ctrls.perBankRdBursts::11                0                       # Per bank write bursts
system.mem_ctrls.perBankRdBursts::12                0                       # Per bank write bursts
system.mem_ctrls.perBankRdBursts::13                0                       # Per bank write bursts
system.mem_ctrls.perBankRdBursts::14                0                       # Per bank write bursts
system.mem_ctrls.perBankRdBursts::15                0                       # Per bank write bursts
system.mem_ctrls.perBankWrBursts::0                 0                       # Per bank write bursts
system.mem_ctrls.perBankWrBursts::1                 0                       # Per bank write bursts
system.mem_ctrls.perBankWrBursts::2                 0                       # Per bank write bursts
system.mem_ctrls.perBankWrBursts::3                 0                       # Per bank write bursts
system.mem_ctrls.perBankWrBursts::4                 0                       # Per bank write bursts
system.mem_ctrls.perBankWrBursts::5                 0                       # Per bank write bursts
system.mem_ctrls.perBankWrBursts::6                 0                       # Per bank write bursts
system.mem_ctrls.perBankWrBursts::7                 0                       # Per bank write bursts
system.mem_ctrls.perBankWrBursts::8                 0                       # Per bank write bursts
system.mem_ctrls.perBankWrBursts::9                 0                       # Per bank write bursts
system.mem_ctrls.perBankWrBursts::10                0                       # Per bank write bursts
system.mem_ctrls.perBankWrBursts::11                0                       # Per bank write bursts
system.mem_ctrls.perBankWrBursts::12                0                       # Per bank write bursts
system.mem_ctrls.perBankWrBursts::13                0                       # Per bank write bursts
system.mem_ctrls.perBankWrBursts::14                0                       # Per bank write bursts
system.mem_ctrls.perBankWrBursts::15                0                       # Per bank write bursts
system.mem_ctrls.numRdRetry                         0                       # Number of times read queue was full causing retry
system.mem_ctrls.numWrRetry                         0                       # Number of times write queue was full causing retry
system.mem_ctrls.totGap                             0                       # Total gap between requests
system.mem_ctrls.readPktSize::0                     0                       # Read request sizes (log2)
system.mem_ctrls.readPktSize::1                     0                       # Read request sizes (log2)
system.mem_ctrls.readPktSize::2                     0                       # Read request sizes (log2)
system.mem_ctrls.readPktSize::3                     0                       # Read request sizes (log2)
system.mem_ctrls.readPktSize::4                     0                       # Read request sizes (log2)
system.mem_ctrls.readPktSize::5                     0                       # Read request sizes (log2)
system.mem_ctrls.readPktSize::6                     0                       # Read request sizes (log2)
system.mem_ctrls.writePktSize::0                    0                       # Write request sizes (log2)
system.mem_ctrls.writePktSize::1                    0                       # Write request sizes (log2)
system.mem_ctrls.writePktSize::2                    0                       # Write request sizes (log2)
system.mem_ctrls.writePktSize::3                    0                       # Write request sizes (log2)
system.mem_ctrls.writePktSize::4                    0                       # Write request sizes (log2)
system.mem_ctrls.writePktSize::5                    0                       # Write request sizes (log2)
system.mem_ctrls.writePktSize::6                    0                       # Write request sizes (log2)
system.mem_ctrls.rdQLenPdf::0                       0                       # What read queue length does an incoming req see
system.mem_ctrls.rdQLenPdf::1                       0                       # What read queue length does an incoming req see
system.mem_ctrls.rdQLenPdf::2                       0                       # What read queue length does an incoming req see
system.mem_ctrls.rdQLenPdf::3                       0                       # What read queue length does an incoming req see
system.mem_ctrls.rdQLenPdf::4                       0                       # What read queue length does an incoming req see
system.mem_ctrls.rdQLenPdf::5                       0                       # What read queue length does an incoming req see
system.mem_ctrls.rdQLenPdf::6                       0                       # What read queue length does an incoming req see
system.mem_ctrls.rdQLenPdf::7                       0                       # What read queue length does an incoming req see
system.mem_ctrls.rdQLenPdf::8                       0                       # What read queue length does an incoming req see
system.mem_ctrls.rdQLenPdf::9                       0                       # What read queue length does an incoming req see
system.mem_ctrls.rdQLenPdf::10                      0                       # What read queue length does an incoming req see
system.mem_ctrls.rdQLenPdf::11                      0                       # What read queue length does an incoming req see
system.mem_ctrls.rdQLenPdf::12                      0                       # What read queue length does an incoming req see
system.mem_ctrls.rdQLenPdf::13                      0                       # What read queue length does an incoming req see
system.mem_ctrls.rdQLenPdf::14                      0                       # What read queue length does an incoming req see
system.mem_ctrls.rdQLenPdf::15                      0                       # What read queue length does an incoming req see
system.mem_ctrls.rdQLenPdf::16                      0                       # What read queue length does an incoming req see
system.mem_ctrls.rdQLenPdf::17                      0                       # What read queue length does an incoming req see
system.mem_ctrls.rdQLenPdf::18                      0                       # What read queue length does an incoming req see
system.mem_ctrls.rdQLenPdf::19                      0                       # What read queue length does an incoming req see
system.mem_ctrls.rdQLenPdf::20                      0                       # What read queue length does an incoming req see
system.mem_ctrls.rdQLenPdf::21                      0                       # What read queue length does an incoming req see
system.mem_ctrls.rdQLenPdf::22                      0                       # What read queue length does an incoming req see
system.mem_ctrls.rdQLenPdf::23                      0                       # What read queue length does an incoming req see
system.mem_ctrls.rdQLenPdf::24                      0                       # What read queue length does an incoming req see
system.mem_ctrls.rdQLenPdf::25                      0                       # What read queue length does an incoming req see
system.mem_ctrls.rdQLenPdf::26                      0                       # What read queue length does an incoming req see
system.mem_ctrls.rdQLenPdf::27                      0                       # What read queue length does an incoming req see
system.mem_ctrls.rdQLenPdf::28                      0                       # What read queue length does an incoming req see
system.mem_ctrls.rdQLenPdf::29                      0                       # What read queue length does an incoming req see
system.mem_ctrls.rdQLenPdf::30                      0                       # What read queue length does an incoming req see
system.mem_ctrls.rdQLenPdf::31                      0                       # What read queue length does an incoming req see
system.mem_ctrls.wrQLenPdf::0                       0                       # What write queue length does an incoming req see
system.mem_ctrls.wrQLenPdf::1                       0                       # What write queue length does an incoming req see
system.mem_ctrls.wrQLenPdf::2                       0                       # What write queue length does an incoming req see
system.mem_ctrls.wrQLenPdf::3                       0                       # What write queue length does an incoming req see
system.mem_ctrls.wrQLenPdf::4                       0                       # What write queue length does an incoming req see
system.mem_ctrls.wrQLenPdf::5                       0                       # What write queue length does an incoming req see
system.mem_ctrls.wrQLenPdf::6                       0                       # What write queue length does an incoming req see
system.mem_ctrls.wrQLenPdf::7                       0                       # What write queue length does an incoming req see
system.mem_ctrls.wrQLenPdf::8                       0                       # What write queue length does an incoming req see
system.mem_ctrls.wrQLenPdf::9                       0                       # What write queue length does an incoming req see
system.mem_ctrls.wrQLenPdf::10                      0                       # What write queue length does an incoming req see
system.mem_ctrls.wrQLenPdf::11                      0                       # What write queue length does an incoming req see
system.mem_ctrls.wrQLenPdf::12                      0                       # What write queue length does an incoming req see
system.mem_ctrls.wrQLenPdf::13                      0                       # What write queue length does an incoming req see
system.mem_ctrls.wrQLenPdf::14                      0                       # What write queue length does an incoming req see
system.mem_ctrls.wrQLenPdf::15                      0                       # What write queue length does an incoming req see
system.mem_ctrls.wrQLenPdf::16                      0                       # What write queue length does an incoming req see
system.mem_ctrls.wrQLenPdf::17                      0                       # What write queue length does an incoming req see
system.mem_ctrls.wrQLenPdf::18                      0                       # What write queue length does an incoming req see
system.mem_ctrls.wrQLenPdf::19                      0                       # What write queue length does an incoming req see
system.mem_ctrls.wrQLenPdf::20                      0                       # What write queue length does an incoming req see
system.mem_ctrls.wrQLenPdf::21                      0                       # What write queue length does an incoming req see
system.mem_ctrls.wrQLenPdf::22                      0                       # What write queue length does an incoming req see
system.mem_ctrls.wrQLenPdf::23                      0                       # What write queue length does an incoming req see
system.mem_ctrls.wrQLenPdf::24                      0                       # What write queue length does an incoming req see
system.mem_ctrls.wrQLenPdf::25                      0                       # What write queue length does an incoming req see
system.mem_ctrls.wrQLenPdf::26                      0                       # What write queue length does an incoming req see
system.mem_ctrls.wrQLenPdf::27                      0                       # What write queue length does an incoming req see
system.mem_ctrls.wrQLenPdf::28                      0                       # What write queue length does an incoming req see
system.mem_ctrls.wrQLenPdf::29                      0                       # What write queue length does an incoming req see
system.mem_ctrls.wrQLenPdf::30                      0                       # What write queue length does an incoming req see
system.mem_ctrls.wrQLenPdf::31                      0                       # What write queue length does an incoming req see
system.mem_ctrls.wrQLenPdf::32                      0                       # What write queue length does an incoming req see
system.mem_ctrls.wrQLenPdf::33                      0                       # What write queue length does an incoming req see
system.mem_ctrls.wrQLenPdf::34                      0                       # What write queue length does an incoming req see
system.mem_ctrls.wrQLenPdf::35                      0                       # What write queue length does an incoming req see
system.mem_ctrls.wrQLenPdf::36                      0                       # What write queue length does an incoming req see
system.mem_ctrls.wrQLenPdf::37                      0                       # What write queue length does an incoming req see
system.mem_ctrls.wrQLenPdf::38                      0                       # What write queue length does an incoming req see
system.mem_ctrls.wrQLenPdf::39                      0                       # What write queue length does an incoming req see
system.mem_ctrls.wrQLenPdf::40                      0                       # What write queue length does an incoming req see
system.mem_ctrls.wrQLenPdf::41                      0                       # What write queue length does an incoming req see
system.mem_ctrls.wrQLenPdf::42                      0                       # What write queue length does an incoming req see
system.mem_ctrls.wrQLenPdf::43                      0                       # What write queue length does an incoming req see
system.mem_ctrls.wrQLenPdf::44                      0                       # What write queue length does an incoming req see
system.mem_ctrls.wrQLenPdf::45                      0                       # What write queue length does an incoming req see
system.mem_ctrls.wrQLenPdf::46                      0                       # What write queue length does an incoming req see
system.mem_ctrls.wrQLenPdf::47                      0                       # What write queue length does an incoming req see
system.mem_ctrls.wrQLenPdf::48                      0                       # What write queue length does an incoming req see
system.mem_ctrls.wrQLenPdf::49                      0                       # What write queue length does an incoming req see
system.mem_ctrls.wrQLenPdf::50                      0                       # What write queue length does an incoming req see
system.mem_ctrls.wrQLenPdf::51                      0                       # What write queue length does an incoming req see
system.mem_ctrls.wrQLenPdf::52                      0                       # What write queue length does an incoming req see
system.mem_ctrls.wrQLenPdf::53                      0                       # What write queue length does an incoming req see
system.mem_ctrls.wrQLenPdf::54                      0                       # What write queue length does an incoming req see
system.mem_ctrls.wrQLenPdf::55                      0                       # What write queue length does an incoming req see
system.mem_ctrls.wrQLenPdf::56                      0                       # What write queue length does an incoming req see
system.mem_ctrls.wrQLenPdf::57                      0                       # What write queue length does an incoming req see
system.mem_ctrls.wrQLenPdf::58                      0                       # What write queue length does an incoming req see
system.mem_ctrls.wrQLenPdf::59                      0                       # What write queue length does an incoming req see
system.mem_ctrls.wrQLenPdf::60                      0                       # What write queue length does an incoming req see
system.mem_ctrls.wrQLenPdf::61                      0                       # What write queue length does an incoming req see
system.mem_ctrls.wrQLenPdf::62                      0                       # What write queue length does an incoming req see
system.mem_ctrls.wrQLenPdf::63                      0                       # What write queue length does an incoming req see
system.mem_ctrls.totQLat                            0                       # Total ticks spent queuing
system.mem_ctrls.totMemAccLat                       0                       # Total ticks spent from burst creation until serviced by the DRAM
system.mem_ctrls.totBusLat                          0                       # Total ticks spent in databus transfers
system.mem_ctrls.avgQLat                          nan                       # Average queueing delay per DRAM burst
system.mem_ctrls.avgBusLat                        nan                       # Average bus latency per DRAM burst
system.mem_ctrls.avgMemAccLat                     nan                       # Average memory access latency per DRAM burst
system.mem_ctrls.avgRdBW                         0.00                       # Average DRAM read bandwidth in MiByte/s
system.mem_ctrls.avgWrBW                         0.00                       # Average achieved write bandwidth in MiByte/s
system.mem_ctrls.avgRdBWSys                      0.00                       # Average system read bandwidth in MiByte/s
system.mem_ctrls.avgWrBWSys                      0.00                       # Average system write bandwidth in MiByte/s
system.mem_ctrls.peakBW                      12800.00                       # Theoretical peak bandwidth in MiByte/s
system.mem_ctrls.busUtil                         0.00                       # Data bus utilization in percentage
system.mem_ctrls.busUtilRead                     0.00                       # Data bus utilization in percentage for reads
system.mem_ctrls.busUtilWrite                    0.00                       # Data bus utilization in percentage for writes
system.mem_ctrls.avgRdQLen                       0.00                       # Average read queue length when enqueuing
system.mem_ctrls.avgWrQLen                       0.00                       # Average write queue length when enqueuing
system.mem_ctrls.readRowHits                        0                       # Number of row buffer hits during reads
system.mem_ctrls.writeRowHits                       0                       # Number of row buffer hits during writes
system.mem_ctrls.readRowHitRate                   nan                       # Row buffer hit rate for reads
system.mem_ctrls.writeRowHitRate                  nan                       # Row buffer hit rate for writes
system.mem_ctrls.avgGap                           nan                       # Average gap between requests
system.mem_ctrls.pageHitRate                      nan                       # Row buffer hit rate, read and write combined
system.mem_ctrls_0.actEnergy                        0                       # Energy for activate commands per rank (pJ)
system.mem_ctrls_0.preEnergy                        0                       # Energy for precharge commands per rank (pJ)
system.mem_ctrls_0.readEnergy                       0                       # Energy for read commands per rank (pJ)
system.mem_ctrls_0.writeEnergy                      0                       # Energy for write commands per rank (pJ)
system.mem_ctrls_0.refreshEnergy                    0                       # Energy for refresh commands per rank (pJ)
system.mem_ctrls_0.actBackEnergy                    0                       # Energy for active background per rank (pJ)
system.mem_ctrls_0.preBackEnergy                    0                       # Energy for precharge background per rank (pJ)
system.mem_ctrls_0.totalEnergy                      0                       # Total energy per rank (pJ)
system.mem_ctrls_0.averagePower                     0                       # Core power per rank (mW)
system.mem_ctrls_0.memoryStateTime::IDLE            0                       # Time in different power states
system.mem_ctrls_0.memoryStateTime::REF             0                       # Time in different power states
system.mem_ctrls_0.memoryStateTime::PRE_PDN            0                       # Time in different power states
system.mem_ctrls_0.memoryStateTime::ACT             0                       # Time in different power states
system.mem_ctrls_0.memoryStateTime::ACT_PDN            0                       # Time in different power states
system.mem_ctrls_1.actEnergy                        0                       # Energy for activate commands per rank (pJ)
system.mem_ctrls_1.preEnergy                        0                       # Energy for precharge commands per rank (pJ)
system.mem_ctrls_1.readEnergy                       0                       # Energy for read commands per rank (pJ)
system.mem_ctrls_1.writeEnergy                      0                       # Energy for write commands per rank (pJ)
system.mem_ctrls_1.refreshEnergy                    0                       # Energy for refresh commands per rank (pJ)
system.mem_ctrls_1.actBackEnergy                    0                       # Energy for active background per rank (pJ)
system.mem_ctrls_1.preBackEnergy                    0                       # Energy for precharge background per rank (pJ)
system.mem_ctrls_1.totalEnergy                      0                       # Total energy per rank (pJ)
system.mem_ctrls_1.averagePower                     0                       # Core power per rank (mW)
system.mem_ctrls_1.memoryStateTime::IDLE            0                       # Time in different power states
system.mem_ctrls_1.memoryStateTime::REF             0                       # Time in different power states
system.mem_ctrls_1.memoryStateTime::PRE_PDN            0                       # Time in different power states
system.mem_ctrls_1.memoryStateTime::ACT             0                       # Time in different power states
system.mem_ctrls_1.memoryStateTime::ACT_PDN            0                       # Time in different power states
system.cpu_voltage_domain.voltage                   1                       # Voltage in Volts
system.cpu_clk_domain.clock                       500                       # Clock period in ticks
system.cpu00.dstage2_mmu.stage2_tlb.walker.walks            0                       # Table walker walks requested
system.cpu00.dstage2_mmu.stage2_tlb.walker.walkRequestOrigin_Requested::Data            0                       # Table walker requests started/completed, data/inst
system.cpu00.dstage2_mmu.stage2_tlb.walker.walkRequestOrigin_Requested::Inst            0                       # Table walker requests started/completed, data/inst
[...]
system.membus.pkt_count_system.cpu18.dcache_port::system.mem_ctrls.port        68780                       # Packet count per connected master and slave (bytes)
system.membus.pkt_count_system.cpu19.icache_port::system.mem_ctrls.port       255662                       # Packet count per connected master and slave (bytes)
system.membus.pkt_count_system.cpu19.dcache_port::system.mem_ctrls.port        68778                       # Packet count per connected master and slave (bytes)
system.membus.pkt_count_system.cpu20.icache_port::system.mem_ctrls.port       255318                       # Packet count per connected master and slave (bytes)
system.membus.pkt_count_system.cpu20.dcache_port::system.mem_ctrls.port        68726                       # Packet count per connected master and slave (bytes)
system.membus.pkt_count_system.cpu21.icache_port::system.mem_ctrls.port       255048                       # Packet count per connected master and slave (bytes)
system.membus.pkt_count_system.cpu21.dcache_port::system.mem_ctrls.port        68630                       # Packet count per connected master and slave (bytes)
system.membus.pkt_count_system.cpu22.icache_port::system.mem_ctrls.port       254712                       # Packet count per connected master and slave (bytes)
system.membus.pkt_count_system.cpu22.dcache_port::system.mem_ctrls.port        68564                       # Packet count per connected master and slave (bytes)
system.membus.pkt_count_system.cpu23.icache_port::system.mem_ctrls.port       254376                       # Packet count per connected master and slave (bytes)
system.membus.pkt_count_system.cpu23.dcache_port::system.mem_ctrls.port        68518                       # Packet count per connected master and slave (bytes)
system.membus.pkt_count_system.cpu24.icache_port::system.mem_ctrls.port       254040                       # Packet count per connected master and slave (bytes)
system.membus.pkt_count_system.cpu24.dcache_port::system.mem_ctrls.port        68472                       # Packet count per connected master and slave (bytes)
system.membus.pkt_count_system.cpu25.icache_port::system.mem_ctrls.port       253704                       # Packet count per connected master and slave (bytes)
system.membus.pkt_count_system.cpu25.dcache_port::system.mem_ctrls.port        68420                       # Packet count per connected master and slave (bytes)
system.membus.pkt_count_system.cpu26.icache_port::system.mem_ctrls.port       253386                       # Packet count per connected master and slave (bytes)
system.membus.pkt_count_system.cpu26.dcache_port::system.mem_ctrls.port        68344                       # Packet count per connected master and slave (bytes)
system.membus.pkt_count_system.cpu27.icache_port::system.mem_ctrls.port       253090                       # Packet count per connected master and slave (bytes)
system.membus.pkt_count_system.cpu27.dcache_port::system.mem_ctrls.port        68308                       # Packet count per connected master and slave (bytes)
system.membus.pkt_count_system.cpu28.icache_port::system.mem_ctrls.port       252754                       # Packet count per connected master and slave (bytes)
system.membus.pkt_count_system.cpu28.dcache_port::system.mem_ctrls.port        68260                       # Packet count per connected master and slave (bytes)
system.membus.pkt_count_system.cpu29.icache_port::system.mem_ctrls.port       252418                       # Packet count per connected master and slave (bytes)
system.membus.pkt_count_system.cpu29.dcache_port::system.mem_ctrls.port        68222                       # Packet count per connected master and slave (bytes)
system.membus.pkt_count_system.cpu30.icache_port::system.mem_ctrls.port       252082                       # Packet count per connected master and slave (bytes)
system.membus.pkt_count_system.cpu30.dcache_port::system.mem_ctrls.port        68152                       # Packet count per connected master and slave (bytes)
system.membus.pkt_count_system.cpu31.icache_port::system.mem_ctrls.port       251738                       # Packet count per connected master and slave (bytes)
system.membus.pkt_count_system.cpu31.dcache_port::system.mem_ctrls.port        68094                       # Packet count per connected master and slave (bytes)
system.membus.pkt_count::total               10768684                       # Packet count per connected master and slave (bytes)
system.membus.pkt_size_system.cpu00.icache_port::system.mem_ctrls.port      1019224                       # Cumulative packet size per connected master and slave (bytes)
system.membus.pkt_size_system.cpu00.dcache_port::system.mem_ctrls.port       336454                       # Cumulative packet size per connected master and slave (bytes)
system.membus.pkt_size_system.cpu01.icache_port::system.mem_ctrls.port       523072                       # Cumulative packet size per connected master and slave (bytes)
system.membus.pkt_size_system.cpu01.dcache_port::system.mem_ctrls.port       139710                       # Cumulative packet size per connected master and slave (bytes)
system.membus.pkt_size_system.cpu02.icache_port::system.mem_ctrls.port       522400                       # Cumulative packet size per connected master and slave (bytes)
system.membus.pkt_size_system.cpu02.dcache_port::system.mem_ctrls.port       139730                       # Cumulative packet size per connected master and slave (bytes)
system.membus.pkt_size_system.cpu03.icache_port::system.mem_ctrls.port       521728                       # Cumulative packet size per connected master and slave (bytes)
system.membus.pkt_size_system.cpu03.dcache_port::system.mem_ctrls.port       139598                       # Cumulative packet size per connected master and slave (bytes)
system.membus.pkt_size_system.cpu04.icache_port::system.mem_ctrls.port       521056                       # Cumulative packet size per connected master and slave (bytes)
system.membus.pkt_size_system.cpu04.dcache_port::system.mem_ctrls.port       139542                       # Cumulative packet size per connected master and slave (bytes)
system.membus.pkt_size_system.cpu05.icache_port::system.mem_ctrls.port       520420                       # Cumulative packet size per connected master and slave (bytes)
system.membus.pkt_size_system.cpu05.dcache_port::system.mem_ctrls.port       139290                       # Cumulative packet size per connected master and slave (bytes)
system.membus.pkt_size_system.cpu06.icache_port::system.mem_ctrls.port       519828                       # Cumulative packet size per connected master and slave (bytes)
system.membus.pkt_size_system.cpu06.dcache_port::system.mem_ctrls.port       139138                       # Cumulative packet size per connected master and slave (bytes)
system.membus.pkt_size_system.cpu07.icache_port::system.mem_ctrls.port       519156                       # Cumulative packet size per connected master and slave (bytes)
system.membus.pkt_size_system.cpu07.dcache_port::system.mem_ctrls.port       139082                       # Cumulative packet size per connected master and slave (bytes)
system.membus.pkt_size_system.cpu08.icache_port::system.mem_ctrls.port       518484                       # Cumulative packet size per connected master and slave (bytes)
system.membus.pkt_size_system.cpu08.dcache_port::system.mem_ctrls.port       139006                       # Cumulative packet size per connected master and slave (bytes)
system.membus.pkt_size_system.cpu09.icache_port::system.mem_ctrls.port       517812                       # Cumulative packet size per connected master and slave (bytes)
system.membus.pkt_size_system.cpu09.dcache_port::system.mem_ctrls.port       138894                       # Cumulative packet size per connected master and slave (bytes)
system.membus.pkt_size_system.cpu10.icache_port::system.mem_ctrls.port       517176                       # Cumulative packet size per connected master and slave (bytes)
system.membus.pkt_size_system.cpu10.dcache_port::system.mem_ctrls.port       138754                       # Cumulative packet size per connected master and slave (bytes)
system.membus.pkt_size_system.cpu11.icache_port::system.mem_ctrls.port       516584                       # Cumulative packet size per connected master and slave (bytes)
system.membus.pkt_size_system.cpu11.dcache_port::system.mem_ctrls.port       138590                       # Cumulative packet size per connected master and slave (bytes)
system.membus.pkt_size_system.cpu12.icache_port::system.mem_ctrls.port       515912                       # Cumulative packet size per connected master and slave (bytes)
system.membus.pkt_size_system.cpu12.dcache_port::system.mem_ctrls.port       138490                       # Cumulative packet size per connected master and slave (bytes)
system.membus.pkt_size_system.cpu13.icache_port::system.mem_ctrls.port       515240                       # Cumulative packet size per connected master and slave (bytes)
system.membus.pkt_size_system.cpu13.dcache_port::system.mem_ctrls.port       138374                       # Cumulative packet size per connected master and slave (bytes)
system.membus.pkt_size_system.cpu14.icache_port::system.mem_ctrls.port       514568                       # Cumulative packet size per connected master and slave (bytes)
system.membus.pkt_size_system.cpu14.dcache_port::system.mem_ctrls.port       138298                       # Cumulative packet size per connected master and slave (bytes)
system.membus.pkt_size_system.cpu15.icache_port::system.mem_ctrls.port       513896                       # Cumulative packet size per connected master and slave (bytes)
system.membus.pkt_size_system.cpu15.dcache_port::system.mem_ctrls.port       138250                       # Cumulative packet size per connected master and slave (bytes)
system.membus.pkt_size_system.cpu16.icache_port::system.mem_ctrls.port       513340                       # Cumulative packet size per connected master and slave (bytes)
system.membus.pkt_size_system.cpu16.dcache_port::system.mem_ctrls.port       137934                       # Cumulative packet size per connected master and slave (bytes)
system.membus.pkt_size_system.cpu17.icache_port::system.mem_ctrls.port       512668                       # Cumulative packet size per connected master and slave (bytes)
system.membus.pkt_size_system.cpu17.dcache_port::system.mem_ctrls.port       137890                       # Cumulative packet size per connected master and slave (bytes)
system.membus.pkt_size_system.cpu18.icache_port::system.mem_ctrls.port       511996                       # Cumulative packet size per connected master and slave (bytes)
system.membus.pkt_size_system.cpu18.dcache_port::system.mem_ctrls.port       137814                       # Cumulative packet size per connected master and slave (bytes)
system.membus.pkt_size_system.cpu19.icache_port::system.mem_ctrls.port       511324                       # Cumulative packet size per connected master and slave (bytes)
system.membus.pkt_size_system.cpu19.dcache_port::system.mem_ctrls.port       137814                       # Cumulative packet size per connected master and slave (bytes)
system.membus.pkt_size_system.cpu20.icache_port::system.mem_ctrls.port       510636                       # Cumulative packet size per connected master and slave (bytes)
system.membus.pkt_size_system.cpu20.dcache_port::system.mem_ctrls.port       137714                       # Cumulative packet size per connected master and slave (bytes)
system.membus.pkt_size_system.cpu21.icache_port::system.mem_ctrls.port       510096                       # Cumulative packet size per connected master and slave (bytes)
system.membus.pkt_size_system.cpu21.dcache_port::system.mem_ctrls.port       137470                       # Cumulative packet size per connected master and slave (bytes)
system.membus.pkt_size_system.cpu22.icache_port::system.mem_ctrls.port       509424                       # Cumulative packet size per connected master and slave (bytes)
system.membus.pkt_size_system.cpu22.dcache_port::system.mem_ctrls.port       137338                       # Cumulative packet size per connected master and slave (bytes)
system.membus.pkt_size_system.cpu23.icache_port::system.mem_ctrls.port       508752                       # Cumulative packet size per connected master and slave (bytes)
system.membus.pkt_size_system.cpu23.dcache_port::system.mem_ctrls.port       137246                       # Cumulative packet size per connected master and slave (bytes)
system.membus.pkt_size_system.cpu24.icache_port::system.mem_ctrls.port       508080                       # Cumulative packet size per connected master and slave (bytes)
system.membus.pkt_size_system.cpu24.dcache_port::system.mem_ctrls.port       137150                       # Cumulative packet size per connected master and slave (bytes)
system.membus.pkt_size_system.cpu25.icache_port::system.mem_ctrls.port       507408                       # Cumulative packet size per connected master and slave (bytes)
system.membus.pkt_size_system.cpu25.dcache_port::system.mem_ctrls.port       137050                       # Cumulative packet size per connected master and slave (bytes)
system.membus.pkt_size_system.cpu26.icache_port::system.mem_ctrls.port       506772                       # Cumulative packet size per connected master and slave (bytes)
system.membus.pkt_size_system.cpu26.dcache_port::system.mem_ctrls.port       136882                       # Cumulative packet size per connected master and slave (bytes)
system.membus.pkt_size_system.cpu27.icache_port::system.mem_ctrls.port       506180                       # Cumulative packet size per connected master and slave (bytes)
system.membus.pkt_size_system.cpu27.dcache_port::system.mem_ctrls.port       136778                       # Cumulative packet size per connected master and slave (bytes)
system.membus.pkt_size_system.cpu28.icache_port::system.mem_ctrls.port       505508                       # Cumulative packet size per connected master and slave (bytes)
system.membus.pkt_size_system.cpu28.dcache_port::system.mem_ctrls.port       136678                       # Cumulative packet size per connected master and slave (bytes)
system.membus.pkt_size_system.cpu29.icache_port::system.mem_ctrls.port       504836                       # Cumulative packet size per connected master and slave (bytes)
system.membus.pkt_size_system.cpu29.dcache_port::system.mem_ctrls.port       136606                       # Cumulative packet size per connected master and slave (bytes)
system.membus.pkt_size_system.cpu30.icache_port::system.mem_ctrls.port       504164                       # Cumulative packet size per connected master and slave (bytes)
system.membus.pkt_size_system.cpu30.dcache_port::system.mem_ctrls.port       136462                       # Cumulative packet size per connected master and slave (bytes)
system.membus.pkt_size_system.cpu31.icache_port::system.mem_ctrls.port       503476                       # Cumulative packet size per connected master and slave (bytes)
system.membus.pkt_size_system.cpu31.dcache_port::system.mem_ctrls.port       136358                       # Cumulative packet size per connected master and slave (bytes)
system.membus.pkt_size::total                21547600                       # Cumulative packet size per connected master and slave (bytes)
system.membus.snoops                                0                       # Total snoops (count)
system.membus.snoop_fanout::samples           5384342                       # Request fanout histogram
system.membus.snoop_fanout::mean            31.786132                       # Request fanout histogram
system.membus.snoop_fanout::stdev            0.410035                       # Request fanout histogram
system.membus.snoop_fanout::underflows              0      0.00%      0.00% # Request fanout histogram
system.membus.snoop_fanout::0                       0      0.00%      0.00% # Request fanout histogram
system.membus.snoop_fanout::1                       0      0.00%      0.00% # Request fanout histogram
system.membus.snoop_fanout::2                       0      0.00%      0.00% # Request fanout histogram
system.membus.snoop_fanout::3                       0      0.00%      0.00% # Request fanout histogram
system.membus.snoop_fanout::4                       0      0.00%      0.00% # Request fanout histogram
system.membus.snoop_fanout::5                       0      0.00%      0.00% # Request fanout histogram
system.membus.snoop_fanout::6                       0      0.00%      0.00% # Request fanout histogram
system.membus.snoop_fanout::7                       0      0.00%      0.00% # Request fanout histogram
system.membus.snoop_fanout::8                       0      0.00%      0.00% # Request fanout histogram
system.membus.snoop_fanout::9                       0      0.00%      0.00% # Request fanout histogram
system.membus.snoop_fanout::10                      0      0.00%      0.00% # Request fanout histogram
system.membus.snoop_fanout::11                      0      0.00%      0.00% # Request fanout histogram
system.membus.snoop_fanout::12                      0      0.00%      0.00% # Request fanout histogram
system.membus.snoop_fanout::13                      0      0.00%      0.00% # Request fanout histogram
system.membus.snoop_fanout::14                      0      0.00%      0.00% # Request fanout histogram
system.membus.snoop_fanout::15                      0      0.00%      0.00% # Request fanout histogram
system.membus.snoop_fanout::16                      0      0.00%      0.00% # Request fanout histogram
system.membus.snoop_fanout::17                      0      0.00%      0.00% # Request fanout histogram
system.membus.snoop_fanout::18                      0      0.00%      0.00% # Request fanout histogram
system.membus.snoop_fanout::19                      0      0.00%      0.00% # Request fanout histogram
system.membus.snoop_fanout::20                      0      0.00%      0.00% # Request fanout histogram
system.membus.snoop_fanout::21                      0      0.00%      0.00% # Request fanout histogram
system.membus.snoop_fanout::22                      0      0.00%      0.00% # Request fanout histogram
system.membus.snoop_fanout::23                      0      0.00%      0.00% # Request fanout histogram
system.membus.snoop_fanout::24                      0      0.00%      0.00% # Request fanout histogram
system.membus.snoop_fanout::25                      0      0.00%      0.00% # Request fanout histogram
system.membus.snoop_fanout::26                      0      0.00%      0.00% # Request fanout histogram
system.membus.snoop_fanout::27                      0      0.00%      0.00% # Request fanout histogram
system.membus.snoop_fanout::28                      0      0.00%      0.00% # Request fanout histogram
system.membus.snoop_fanout::29                      0      0.00%      0.00% # Request fanout histogram
system.membus.snoop_fanout::30                      0      0.00%      0.00% # Request fanout histogram
system.membus.snoop_fanout::31                1151538     21.39%     21.39% # Request fanout histogram
system.membus.snoop_fanout::32                4232804     78.61%    100.00% # Request fanout histogram
system.membus.snoop_fanout::overflows               0      0.00%    100.00% # Request fanout histogram
system.membus.snoop_fanout::min_value              31                       # Request fanout histogram
system.membus.snoop_fanout::max_value              32                       # Request fanout histogram
system.membus.snoop_fanout::total             5384342                       # Request fanout histogram

---------- End Simulation Statistics   ----------
