
---------- Begin Simulation Statistics ----------
sim_seconds                                  0.001154                       # Number of seconds simulated
sim_ticks                                  1154240000                       # Number of ticks simulated
final_tick                                 1154240000                       # Number of ticks from beginning of simulation (restored from checkpoints and never reset)
sim_freq                                 1000000000000                       # Frequency of simulated ticks
host_inst_rate                                 228926                       # Simulator instruction rate (inst/s)
host_op_rate                                   230736                       # Simulator op (including micro ops) rate (op/s)
host_tick_rate                               64299337                       # Simulator tick rate (ticks/s)
host_mem_usage                                 652580                       # Number of bytes of host memory used
host_seconds                                    17.95                       # Real time elapsed on the host
sim_insts                                     4109449                       # Number of instructions simulated
sim_ops                                       4141947                       # Number of ops (including micro ops) simulated
system.voltage_domain.voltage                       1                       # Voltage in Volts
system.clk_domain.clock                          1000                       # Clock period in ticks
system.mem_ctrls.bytes_read::cpu.inst           35776                       # Number of bytes read from this memory
system.mem_ctrls.bytes_read::cpu.data          114112                       # Number of bytes read from this memory
system.mem_ctrls.bytes_read::total             149888                       # Number of bytes read from this memory
system.mem_ctrls.bytes_inst_read::cpu.inst        35776                       # Number of instructions bytes read from this memory
system.mem_ctrls.bytes_inst_read::total         35776                       # Number of instructions bytes read from this memory
system.mem_ctrls.num_reads::cpu.inst              559                       # Number of read requests responded to by this memory
system.mem_ctrls.num_reads::cpu.data             1783                       # Number of read requests responded to by this memory
system.mem_ctrls.num_reads::total                2342                       # Number of read requests responded to by this memory
system.mem_ctrls.bw_read::cpu.inst           30995287                       # Total read bandwidth from this memory (bytes/s)
system.mem_ctrls.bw_read::cpu.data           98863321                       # Total read bandwidth from this memory (bytes/s)
system.mem_ctrls.bw_read::total             129858608                       # Total read bandwidth from this memory (bytes/s)
system.mem_ctrls.bw_inst_read::cpu.inst      30995287                       # Instruction read bandwidth from this memory (bytes/s)
system.mem_ctrls.bw_inst_read::total         30995287                       # Instruction read bandwidth from this memory (bytes/s)
system.mem_ctrls.bw_total::cpu.inst          30995287                       # Total bandwidth to/from this memory (bytes/s)
system.mem_ctrls.bw_total::cpu.data          98863321                       # Total bandwidth to/from this memory (bytes/s)
system.mem_ctrls.bw_total::total            129858608                       # Total bandwidth to/from this memory (bytes/s)
system.mem_ctrls.readReqs                        2342                       # Number of read requests accepted
system.mem_ctrls.writeReqs                          0                       # Number of write requests accepted
system.mem_ctrls.readBursts                      2342                       # Number of DRAM read bursts, including those serviced by the write queue
system.mem_ctrls.writeBursts                        0                       # Number of DRAM write bursts, including those merged in the write queue
system.mem_ctrls.bytesReadDRAM                 149888                       # Total number of bytes read from DRAM
system.mem_ctrls.bytesReadWrQ                       0                       # Total number of bytes read from write queue
system.mem_ctrls.bytesWritten                       0                       # Total number of bytes written to DRAM
system.mem_ctrls.bytesReadSys                  149888                       # Total read bytes from the system interface side
system.mem_ctrls.bytesWrittenSys                    0                       # Total written bytes from the system interface side
system.mem_ctrls.servicedByWrQ                      0                       # Number of DRAM read bursts serviced by the write queue
system.mem_ctrls.mergedWrBursts                     0                       # Number of DRAM write bursts merged with an existing one
system.mem_ctrls.neitherReadNorWriteReqs            0                       # Number of requests that are neither read nor write
system.mem_ctrls.perBankRdBursts::0               149                       # Per bank write bursts
system.mem_ctrls.perBankRdBursts::1                99                       # Per bank write bursts
system.mem_ctrls.perBankRdBursts::2               128                       # Per bank write bursts
system.mem_ctrls.perBankRdBursts::3               195                       # Per bank write bursts
system.mem_ctrls.perBankRdBursts::4               147                       # Per bank write bursts
system.mem_ctrls.perBankRdBursts::5               148                       # Per bank write bursts
system.mem_ctrls.perBankRdBursts::6               220                       # Per bank write bursts
system.mem_ctrls.perBankRdBursts::7               162                       # Per bank write bursts
system.mem_ctrls.perBankRdBursts::8               142                       # Per bank write bursts
system.mem_ctrls.perBankRdBursts::9               138                       # Per bank write bursts
system.mem_ctrls.perBankRdBursts::10              128                       # Per bank write bursts
system.mem_ctrls.perBankRdBursts::11              142                       # Per bank write bursts
system.mem_ctrls.perBankRdBursts::12              134                       # Per bank write bursts
system.mem_ctrls.perBankRdBursts::13              161                       # Per bank write bursts
system.mem_ctrls.perBankRdBursts::14              166                       # Per bank write bursts
system.mem_ctrls.perBankRdBursts::15               83                       # Per bank write bursts
system.mem_ctrls.perBankWrBursts::0                 0                       # Per bank write bursts
system.mem_ctrls.perBankWrBursts::1                 0                       # Per bank write bursts
system.mem_ctrls.perBankWrBursts::2                 0                       # Per bank write bursts
system.mem_ctrls.perBankWrBursts::3                 0                       # Per bank write bursts
system.mem_ctrls.perBankWrBursts::4                 0                       # Per bank write bursts
system.mem_ctrls.perBankWrBursts::5                 0                       # Per bank write bursts
system.mem_ctrls.perBankWrBursts::6                 0                       # Per bank write bursts
system.mem_ctrls.perBankWrBursts::7                 0                       # Per bank write bursts
system.mem_ctrls.perBankWrBursts::8                 0                       # Per bank write bursts
system.mem_ctrls.perBankWrBursts::9                 0                       # Per bank write bursts
system.mem_ctrls.perBankWrBursts::10                0                       # Per bank write bursts
system.mem_ctrls.perBankWrBursts::11                0                       # Per bank write bursts
system.mem_ctrls.perBankWrBursts::12                0                       # Per bank write bursts
system.mem_ctrls.perBankWrBursts::13                0                       # Per bank write bursts
system.mem_ctrls.perBankWrBursts::14                0                       # Per bank write bursts
system.mem_ctrls.perBankWrBursts::15                0                       # Per bank write bursts
system.mem_ctrls.numRdRetry                         0                       # Number of times read queue was full causing retry
system.mem_ctrls.numWrRetry                         0                       # Number of times write queue was full causing retry
system.mem_ctrls.totGap                    1154196500                       # Total gap between requests
system.mem_ctrls.readPktSize::0                     0                       # Read request sizes (log2)
system.mem_ctrls.readPktSize::1                     0                       # Read request sizes (log2)
system.mem_ctrls.readPktSize::2                     0                       # Read request sizes (log2)
system.mem_ctrls.readPktSize::3                     0                       # Read request sizes (log2)
system.mem_ctrls.readPktSize::4                     0                       # Read request sizes (log2)
system.mem_ctrls.readPktSize::5                     0                       # Read request sizes (log2)
system.mem_ctrls.readPktSize::6                  2342                       # Read request sizes (log2)
system.mem_ctrls.writePktSize::0                    0                       # Write request sizes (log2)
system.mem_ctrls.writePktSize::1                    0                       # Write request sizes (log2)
system.mem_ctrls.writePktSize::2                    0                       # Write request sizes (log2)
system.mem_ctrls.writePktSize::3                    0                       # Write request sizes (log2)
system.mem_ctrls.writePktSize::4                    0                       # Write request sizes (log2)
system.mem_ctrls.writePktSize::5                    0                       # Write request sizes (log2)
system.mem_ctrls.writePktSize::6                    0                       # Write request sizes (log2)
system.mem_ctrls.rdQLenPdf::0                    1366                       # What read queue length does an incoming req see
system.mem_ctrls.rdQLenPdf::1                     887                       # What read queue length does an incoming req see
system.mem_ctrls.rdQLenPdf::2                      61                       # What read queue length does an incoming req see
system.mem_ctrls.rdQLenPdf::3                      20                       # What read queue length does an incoming req see
system.mem_ctrls.rdQLenPdf::4                       7                       # What read queue length does an incoming req see
system.mem_ctrls.rdQLenPdf::5                       1                       # What read queue length does an incoming req see
system.mem_ctrls.rdQLenPdf::6                       0                       # What read queue length does an incoming req see
system.mem_ctrls.rdQLenPdf::7                       0                       # What read queue length does an incoming req see
system.mem_ctrls.rdQLenPdf::8                       0                       # What read queue length does an incoming req see
system.mem_ctrls.rdQLenPdf::9                       0                       # What read queue length does an incoming req see
system.mem_ctrls.rdQLenPdf::10                      0                       # What read queue length does an incoming req see
system.mem_ctrls.rdQLenPdf::11                      0                       # What read queue length does an incoming req see
system.mem_ctrls.rdQLenPdf::12                      0                       # What read queue length does an incoming req see
system.mem_ctrls.rdQLenPdf::13                      0                       # What read queue length does an incoming req see
system.mem_ctrls.rdQLenPdf::14                      0                       # What read queue length does an incoming req see
system.mem_ctrls.rdQLenPdf::15                      0                       # What read queue length does an incoming req see
system.mem_ctrls.rdQLenPdf::16                      0                       # What read queue length does an incoming req see
system.mem_ctrls.rdQLenPdf::17                      0                       # What read queue length does an incoming req see
system.mem_ctrls.rdQLenPdf::18                      0                       # What read queue length does an incoming req see
system.mem_ctrls.rdQLenPdf::19                      0                       # What read queue length does an incoming req see
system.mem_ctrls.rdQLenPdf::20                      0                       # What read queue length does an incoming req see
system.mem_ctrls.rdQLenPdf::21                      0                       # What read queue length does an incoming req see
system.mem_ctrls.rdQLenPdf::22                      0                       # What read queue length does an incoming req see
system.mem_ctrls.rdQLenPdf::23                      0                       # What read queue length does an incoming req see
system.mem_ctrls.rdQLenPdf::24                      0                       # What read queue length does an incoming req see
system.mem_ctrls.rdQLenPdf::25                      0                       # What read queue length does an incoming req see
system.mem_ctrls.rdQLenPdf::26                      0                       # What read queue length does an incoming req see
system.mem_ctrls.rdQLenPdf::27                      0                       # What read queue length does an incoming req see
system.mem_ctrls.rdQLenPdf::28                      0                       # What read queue length does an incoming req see
system.mem_ctrls.rdQLenPdf::29                      0                       # What read queue length does an incoming req see
system.mem_ctrls.rdQLenPdf::30                      0                       # What read queue length does an incoming req see
system.mem_ctrls.rdQLenPdf::31                      0                       # What read queue length does an incoming req see
system.mem_ctrls.wrQLenPdf::0                       0                       # What write queue length does an incoming req see
system.mem_ctrls.wrQLenPdf::1                       0                       # What write queue length does an incoming req see
system.mem_ctrls.wrQLenPdf::2                       0                       # What write queue length does an incoming req see
system.mem_ctrls.wrQLenPdf::3                       0                       # What write queue length does an incoming req see
system.mem_ctrls.wrQLenPdf::4                       0                       # What write queue length does an incoming req see
system.mem_ctrls.wrQLenPdf::5                       0                       # What write queue length does an incoming req see
system.mem_ctrls.wrQLenPdf::6                       0                       # What write queue length does an incoming req see
system.mem_ctrls.wrQLenPdf::7                       0                       # What write queue length does an incoming req see
system.mem_ctrls.wrQLenPdf::8                       0                       # What write queue length does an incoming req see
system.mem_ctrls.wrQLenPdf::9                       0                       # What write queue length does an incoming req see
system.mem_ctrls.wrQLenPdf::10                      0                       # What write queue length does an incoming req see
system.mem_ctrls.wrQLenPdf::11                      0                       # What write queue length does an incoming req see
system.mem_ctrls.wrQLenPdf::12                      0                       # What write queue length does an incoming req see
system.mem_ctrls.wrQLenPdf::13                      0                       # What write queue length does an incoming req see
system.mem_ctrls.wrQLenPdf::14                      0                       # What write queue length does an incoming req see
system.mem_ctrls.wrQLenPdf::15                      0                       # What write queue length does an incoming req see
system.mem_ctrls.wrQLenPdf::16                      0                       # What write queue length does an incoming req see
system.mem_ctrls.wrQLenPdf::17                      0                       # What write queue length does an incoming req see
system.mem_ctrls.wrQLenPdf::18                      0                       # What write queue length does an incoming req see
system.mem_ctrls.wrQLenPdf::19                      0                       # What write queue length does an incoming req see
system.mem_ctrls.wrQLenPdf::20                      0                       # What write queue length does an incoming req see
system.mem_ctrls.wrQLenPdf::21                      0                       # What write queue length does an incoming req see
system.mem_ctrls.wrQLenPdf::22                      0                       # What write queue length does an incoming req see
system.mem_ctrls.wrQLenPdf::23                      0                       # What write queue length does an incoming req see
system.mem_ctrls.wrQLenPdf::24                      0                       # What write queue length does an incoming req see
system.mem_ctrls.wrQLenPdf::25                      0                       # What write queue length does an incoming req see
system.mem_ctrls.wrQLenPdf::26                      0                       # What write queue length does an incoming req see
system.mem_ctrls.wrQLenPdf::27                      0                       # What write queue length does an incoming req see
system.mem_ctrls.wrQLenPdf::28                      0                       # What write queue length does an incoming req see
system.mem_ctrls.wrQLenPdf::29                      0                       # What write queue length does an incoming req see
system.mem_ctrls.wrQLenPdf::30                      0                       # What write queue length does an incoming req see
system.mem_ctrls.wrQLenPdf::31                      0                       # What write queue length does an incoming req see
system.mem_ctrls.wrQLenPdf::32                      0                       # What write queue length does an incoming req see
system.mem_ctrls.wrQLenPdf::33                      0                       # What write queue length does an incoming req see
system.mem_ctrls.wrQLenPdf::34                      0                       # What write queue length does an incoming req see
system.mem_ctrls.wrQLenPdf::35                      0                       # What write queue length does an incoming req see
system.mem_ctrls.wrQLenPdf::36                      0                       # What write queue length does an incoming req see
system.mem_ctrls.wrQLenPdf::37                      0                       # What write queue length does an incoming req see
system.mem_ctrls.wrQLenPdf::38                      0                       # What write queue length does an incoming req see
system.mem_ctrls.wrQLenPdf::39                      0                       # What write queue length does an incoming req see
system.mem_ctrls.wrQLenPdf::40                      0                       # What write queue length does an incoming req see
system.mem_ctrls.wrQLenPdf::41                      0                       # What write queue length does an incoming req see
system.mem_ctrls.wrQLenPdf::42                      0                       # What write queue length does an incoming req see
system.mem_ctrls.wrQLenPdf::43                      0                       # What write queue length does an incoming req see
system.mem_ctrls.wrQLenPdf::44                      0                       # What write queue length does an incoming req see
system.mem_ctrls.wrQLenPdf::45                      0                       # What write queue length does an incoming req see
system.mem_ctrls.wrQLenPdf::46                      0                       # What write queue length does an incoming req see
system.mem_ctrls.wrQLenPdf::47                      0                       # What write queue length does an incoming req see
system.mem_ctrls.wrQLenPdf::48                      0                       # What write queue length does an incoming req see
system.mem_ctrls.wrQLenPdf::49                      0                       # What write queue length does an incoming req see
system.mem_ctrls.wrQLenPdf::50                      0                       # What write queue length does an incoming req see
system.mem_ctrls.wrQLenPdf::51                      0                       # What write queue length does an incoming req see
system.mem_ctrls.wrQLenPdf::52                      0                       # What write queue length does an incoming req see
system.mem_ctrls.wrQLenPdf::53                      0                       # What write queue length does an incoming req see
system.mem_ctrls.wrQLenPdf::54                      0                       # What write queue length does an incoming req see
system.mem_ctrls.wrQLenPdf::55                      0                       # What write queue length does an incoming req see
system.mem_ctrls.wrQLenPdf::56                      0                       # What write queue length does an incoming req see
system.mem_ctrls.wrQLenPdf::57                      0                       # What write queue length does an incoming req see
system.mem_ctrls.wrQLenPdf::58                      0                       # What write queue length does an incoming req see
system.mem_ctrls.wrQLenPdf::59                      0                       # What write queue length does an incoming req see
system.mem_ctrls.wrQLenPdf::60                      0                       # What write queue length does an incoming req see
system.mem_ctrls.wrQLenPdf::61                      0                       # What write queue length does an incoming req see
system.mem_ctrls.wrQLenPdf::62                      0                       # What write queue length does an incoming req see
system.mem_ctrls.wrQLenPdf::63                      0                       # What write queue length does an incoming req see
system.mem_ctrls.bytesPerActivate::samples          271                       # Bytes accessed per row activation
system.mem_ctrls.bytesPerActivate::mean    548.841328                       # Bytes accessed per row activation
system.mem_ctrls.bytesPerActivate::gmean   337.071622                       # Bytes accessed per row activation
system.mem_ctrls.bytesPerActivate::stdev   423.422319                       # Bytes accessed per row activation
system.mem_ctrls.bytesPerActivate::0-127           55     20.30%     20.30% # Bytes accessed per row activation
system.mem_ctrls.bytesPerActivate::128-255           52     19.19%     39.48% # Bytes accessed per row activation
system.mem_ctrls.bytesPerActivate::256-383           25      9.23%     48.71% # Bytes accessed per row activation
system.mem_ctrls.bytesPerActivate::384-511            7      2.58%     51.29% # Bytes accessed per row activation
system.mem_ctrls.bytesPerActivate::512-639            6      2.21%     53.51% # Bytes accessed per row activation
system.mem_ctrls.bytesPerActivate::640-767            8      2.95%     56.46% # Bytes accessed per row activation
system.mem_ctrls.bytesPerActivate::768-895            4      1.48%     57.93% # Bytes accessed per row activation
system.mem_ctrls.bytesPerActivate::896-1023            9      3.32%     61.25% # Bytes accessed per row activation
system.mem_ctrls.bytesPerActivate::1024-1151          105     38.75%    100.00% # Bytes accessed per row activation
system.mem_ctrls.bytesPerActivate::total          271                       # Bytes accessed per row activation
system.mem_ctrls.totQLat                     13483000                       # Total ticks spent queuing
system.mem_ctrls.totMemAccLat                57395500                       # Total ticks spent from burst creation until serviced by the DRAM
system.mem_ctrls.totBusLat                   11710000                       # Total ticks spent in databus transfers
system.mem_ctrls.avgQLat                      5757.05                       # Average queueing delay per DRAM burst
system.mem_ctrls.avgBusLat                    5000.00                       # Average bus latency per DRAM burst
system.mem_ctrls.avgMemAccLat                24507.05                       # Average memory access latency per DRAM burst
system.mem_ctrls.avgRdBW                       129.86                       # Average DRAM read bandwidth in MiByte/s
system.mem_ctrls.avgWrBW                         0.00                       # Average achieved write bandwidth in MiByte/s
system.mem_ctrls.avgRdBWSys                    129.86                       # Average system read bandwidth in MiByte/s
system.mem_ctrls.avgWrBWSys                      0.00                       # Average system write bandwidth in MiByte/s
system.mem_ctrls.peakBW                      12800.00                       # Theoretical peak bandwidth in MiByte/s
system.mem_ctrls.busUtil                         1.01                       # Data bus utilization in percentage
system.mem_ctrls.busUtilRead                     1.01                       # Data bus utilization in percentage for reads
system.mem_ctrls.busUtilWrite                    0.00                       # Data bus utilization in percentage for writes
system.mem_ctrls.avgRdQLen                       1.06                       # Average read queue length when enqueuing
system.mem_ctrls.avgWrQLen                       0.00                       # Average write queue length when enqueuing
system.mem_ctrls.readRowHits                     2066                       # Number of row buffer hits during reads
system.mem_ctrls.writeRowHits                       0                       # Number of row buffer hits during writes
system.mem_ctrls.readRowHitRate                 88.22                       # Row buffer hit rate for reads
system.mem_ctrls.writeRowHitRate                  nan                       # Row buffer hit rate for writes
system.mem_ctrls.avgGap                     492825.15                       # Average gap between requests
system.mem_ctrls.pageHitRate                    88.22                       # Row buffer hit rate, read and write combined
system.mem_ctrls_0.actEnergy                  1338120                       # Energy for activate commands per rank (pJ)
system.mem_ctrls_0.preEnergy                   730125                       # Energy for precharge commands per rank (pJ)
system.mem_ctrls_0.readEnergy                 9726600                       # Energy for read commands per rank (pJ)
system.mem_ctrls_0.writeEnergy                      0                       # Energy for write commands per rank (pJ)
system.mem_ctrls_0.refreshEnergy             75266880                       # Energy for refresh commands per rank (pJ)
system.mem_ctrls_0.actBackEnergy             82900800                       # Energy for active background per rank (pJ)
system.mem_ctrls_0.preBackEnergy            618856500                       # Energy for precharge background per rank (pJ)
system.mem_ctrls_0.totalEnergy              788819025                       # Total energy per rank (pJ)
system.mem_ctrls_0.averagePower            684.365960                       # Core power per rank (mW)
system.mem_ctrls_0.memoryStateTime::IDLE   1029337250                       # Time in different power states
system.mem_ctrls_0.memoryStateTime::REF      38480000                       # Time in different power states
system.mem_ctrls_0.memoryStateTime::PRE_PDN            0                       # Time in different power states
system.mem_ctrls_0.memoryStateTime::ACT      85296250                       # Time in different power states
system.mem_ctrls_0.memoryStateTime::ACT_PDN            0                       # Time in different power states
system.mem_ctrls_1.actEnergy                   703080                       # Energy for activate commands per rank (pJ)
system.mem_ctrls_1.preEnergy                   383625                       # Energy for precharge commands per rank (pJ)
system.mem_ctrls_1.readEnergy                 8275800                       # Energy for read commands per rank (pJ)
system.mem_ctrls_1.writeEnergy                      0                       # Energy for write commands per rank (pJ)
system.mem_ctrls_1.refreshEnergy             75266880                       # Energy for refresh commands per rank (pJ)
system.mem_ctrls_1.actBackEnergy             75646125                       # Energy for active background per rank (pJ)
system.mem_ctrls_1.preBackEnergy            625218750                       # Energy for precharge background per rank (pJ)
system.mem_ctrls_1.totalEnergy              785494260                       # Total energy per rank (pJ)
system.mem_ctrls_1.averagePower            681.482928                       # Core power per rank (mW)
system.mem_ctrls_1.memoryStateTime::IDLE   1039316500                       # Time in different power states
system.mem_ctrls_1.memoryStateTime::REF      38480000                       # Time in different power states
system.mem_ctrls_1.memoryStateTime::PRE_PDN            0                       # Time in different power states
system.mem_ctrls_1.memoryStateTime::ACT      74842250                       # Time in different power states
system.mem_ctrls_1.memoryStateTime::ACT_PDN            0                       # Time in different power states
system.cpu.branchPred.lookups                  315145                       # Number of BP lookups
system.cpu.branchPred.condPredicted            312490                       # Number of conditional branches predicted
system.cpu.branchPred.condIncorrect              5295                       # Number of conditional branches incorrect
system.cpu.branchPred.BTBLookups               312660                       # Number of BTB lookups
system.cpu.branchPred.BTBHits                  308722                       # Number of BTB hits
system.cpu.branchPred.BTBCorrect                    0                       # Number of correct BTB predictions (this stat may not work properly.
system.cpu.branchPred.BTBHitPct             98.740485                       # BTB Hit Percentage
system.cpu.branchPred.usedRAS                     959                       # Number of times the RAS was used to get a target.
system.cpu.branchPred.RASInCorrect                 15                       # Number of incorrect RAS predictions.
system.cpu_voltage_domain.voltage                   1                       # Voltage in Volts
system.cpu_clk_domain.clock                       500                       # Clock period in ticks
system.cpu.dstage2_mmu.stage2_tlb.walker.walks            0                       # Table walker walks requested
system.cpu.dstage2_mmu.stage2_tlb.walker.walkRequestOrigin_Requested::Data            0                       # Table walker requests started/completed, data/inst
system.cpu.dstage2_mmu.stage2_tlb.walker.walkRequestOrigin_Requested::Inst            0                       # Table walker requests started/completed, data/inst
system.cpu.dstage2_mmu.stage2_tlb.walker.walkRequestOrigin_Requested::total            0                       # Table walker requests started/completed, data/inst
system.cpu.dstage2_mmu.stage2_tlb.walker.walkRequestOrigin_Completed::Data            0                       # Table walker requests started/completed, data/inst
system.cpu.dstage2_mmu.stage2_tlb.walker.walkRequestOrigin_Completed::Inst            0                       # Table walker requests started/completed, data/inst
system.cpu.dstage2_mmu.stage2_tlb.walker.walkRequestOrigin_Completed::total            0                       # Table walker requests started/completed, data/inst
system.cpu.dstage2_mmu.stage2_tlb.walker.walkRequestOrigin::total            0                       # Table walker requests started/completed, data/inst
system.cpu.dstage2_mmu.stage2_tlb.inst_hits            0                       # ITB inst hits
system.cpu.dstage2_mmu.stage2_tlb.inst_misses            0                       # ITB inst misses
system.cpu.dstage2_mmu.stage2_tlb.read_hits            0                       # DTB read hits
system.cpu.dstage2_mmu.stage2_tlb.read_misses            0                       # DTB read misses
system.cpu.dstage2_mmu.stage2_tlb.write_hits            0                       # DTB write hits
system.cpu.dstage2_mmu.stage2_tlb.write_misses            0                       # DTB write misses
system.cpu.dstage2_mmu.stage2_tlb.flush_tlb            0                       # Number of times complete TLB was flushed
system.cpu.dstage2_mmu.stage2_tlb.flush_tlb_mva            0                       # Number of times TLB was flushed by MVA
system.cpu.dstage2_mmu.stage2_tlb.flush_tlb_mva_asid            0                       # Number of times TLB was flushed by MVA & ASID
system.cpu.dstage2_mmu.stage2_tlb.flush_tlb_asid            0                       # Number of times TLB was flushed by ASID
system.cpu.dstage2_mmu.stage2_tlb.flush_entries            0                       # Number of entries that have been flushed from TLB
system.cpu.dstage2_mmu.stage2_tlb.align_faults            0                       # Number of TLB faults due to alignment restrictions
system.cpu.dstage2_mmu.stage2_tlb.prefetch_faults            0                       # Number of TLB faults due to prefetch
system.cpu.dstage2_mmu.stage2_tlb.domain_faults            0                       # Number of TLB faults due to domain restrictions
system.cpu.dstage2_mmu.stage2_tlb.perms_faults            0                       # Number of TLB faults due to permissions restrictions
system.cpu.dstage2_mmu.stage2_tlb.read_accesses            0                       # DTB read accesses
system.cpu.dstage2_mmu.stage2_tlb.write_accesses            0                       # DTB write accesses
system.cpu.dstage2_mmu.stage2_tlb.inst_accesses            0                       # ITB inst accesses
system.cpu.dstage2_mmu.stage2_tlb.hits              0                       # DTB hits
system.cpu.dstage2_mmu.stage2_tlb.misses            0                       # DTB misses
system.cpu.dstage2_mmu.stage2_tlb.accesses            0                       # DTB accesses
system.cpu.dtb.walker.walks                         0                       # Table walker walks requested
system.cpu.dtb.walker.walkRequestOrigin_Requested::Data            0                       # Table walker requests started/completed, data/inst
system.cpu.dtb.walker.walkRequestOrigin_Requested::Inst            0                       # Table walker requests started/completed, data/inst
system.cpu.dtb.walker.walkRequestOrigin_Requested::total            0                       # Table walker requests started/completed, data/inst
system.cpu.dtb.walker.walkRequestOrigin_Completed::Data            0                       # Table walker requests started/completed, data/inst
system.cpu.dtb.walker.walkRequestOrigin_Completed::Inst            0                       # Table walker requests started/completed, data/inst
system.cpu.dtb.walker.walkRequestOrigin_Completed::total            0                       # Table walker requests started/completed, data/inst
system.cpu.dtb.walker.walkRequestOrigin::total            0                       # Table walker requests started/completed, data/inst
system.cpu.dtb.inst_hits                            0                       # ITB inst hits
system.cpu.dtb.inst_misses                          0                       # ITB inst misses
system.cpu.dtb.read_hits                            0                       # DTB read hits
system.cpu.dtb.read_misses                          0                       # DTB read misses
system.cpu.dtb.write_hits                           0                       # DTB write hits
system.cpu.dtb.write_misses                         0                       # DTB write misses
system.cpu.dtb.flush_tlb                            0                       # Number of times complete TLB was flushed
system.cpu.dtb.flush_tlb_mva                        0                       # Number of times TLB was flushed by MVA
system.cpu.dtb.flush_tlb_mva_asid                   0                       # Number of times TLB was flushed by MVA & ASID
system.cpu.dtb.flush_tlb_asid                       0                       # Number of times TLB was flushed by ASID
system.cpu.dtb.flush_entries                        0                       # Number of entries that have been flushed from TLB
system.cpu.dtb.align_faults                         0                       # Number of TLB faults due to alignment restrictions
system.cpu.dtb.prefetch_faults                      0                       # Number of TLB faults due to prefetch
system.cpu.dtb.domain_faults                        0                       # Number of TLB faults due to domain restrictions
system.cpu.dtb.perms_faults                         0                       # Number of TLB faults due to permissions restrictions
system.cpu.dtb.read_accesses                        0                       # DTB read accesses
system.cpu.dtb.write_accesses                       0                       # DTB write accesses
system.cpu.dtb.inst_accesses                        0                       # ITB inst accesses
system.cpu.dtb.hits                                 0                       # DTB hits
system.cpu.dtb.misses                               0                       # DTB misses
system.cpu.dtb.accesses                             0                       # DTB accesses
system.cpu.istage2_mmu.stage2_tlb.walker.walks            0                       # Table walker walks requested
system.cpu.istage2_mmu.stage2_tlb.walker.walkRequestOrigin_Requested::Data            0                       # Table walker requests started/completed, data/inst
system.cpu.istage2_mmu.stage2_tlb.walker.walkRequestOrigin_Requested::Inst            0                       # Table walker requests started/completed, data/inst
system.cpu.istage2_mmu.stage2_tlb.walker.walkRequestOrigin_Requested::total            0                       # Table walker requests started/completed, data/inst
system.cpu.istage2_mmu.stage2_tlb.walker.walkRequestOrigin_Completed::Data            0                       # Table walker requests started/completed, data/inst
system.cpu.istage2_mmu.stage2_tlb.walker.walkRequestOrigin_Completed::Inst            0                       # Table walker requests started/completed, data/inst
system.cpu.istage2_mmu.stage2_tlb.walker.walkRequestOrigin_Completed::total            0                       # Table walker requests started/completed, data/inst
system.cpu.istage2_mmu.stage2_tlb.walker.walkRequestOrigin::total            0                       # Table walker requests started/completed, data/inst
system.cpu.istage2_mmu.stage2_tlb.inst_hits            0                       # ITB inst hits
system.cpu.istage2_mmu.stage2_tlb.inst_misses            0                       # ITB inst misses
system.cpu.istage2_mmu.stage2_tlb.read_hits            0                       # DTB read hits
system.cpu.istage2_mmu.stage2_tlb.read_misses            0                       # DTB read misses
system.cpu.istage2_mmu.stage2_tlb.write_hits            0                       # DTB write hits
system.cpu.istage2_mmu.stage2_tlb.write_misses            0                       # DTB write misses
system.cpu.istage2_mmu.stage2_tlb.flush_tlb            0                       # Number of times complete TLB was flushed
system.cpu.istage2_mmu.stage2_tlb.flush_tlb_mva            0                       # Number of times TLB was flushed by MVA
system.cpu.istage2_mmu.stage2_tlb.flush_tlb_mva_asid            0                       # Number of times TLB was flushed by MVA & ASID
system.cpu.istage2_mmu.stage2_tlb.flush_tlb_asid            0                       # Number of times TLB was flushed by ASID
system.cpu.istage2_mmu.stage2_tlb.flush_entries            0                       # Number of entries that have been flushed from TLB
system.cpu.istage2_mmu.stage2_tlb.align_faults            0                       # Number of TLB faults due to alignment restrictions
system.cpu.istage2_mmu.stage2_tlb.prefetch_faults            0                       # Number of TLB faults due to prefetch
system.cpu.istage2_mmu.stage2_tlb.domain_faults            0                       # Number of TLB faults due to domain restrictions
system.cpu.istage2_mmu.stage2_tlb.perms_faults            0                       # Number of TLB faults due to permissions restrictions
system.cpu.istage2_mmu.stage2_tlb.read_accesses            0                       # DTB read accesses
system.cpu.istage2_mmu.stage2_tlb.write_accesses            0                       # DTB write accesses
system.cpu.istage2_mmu.stage2_tlb.inst_accesses            0                       # ITB inst accesses
system.cpu.istage2_mmu.stage2_tlb.hits              0                       # DTB hits
system.cpu.istage2_mmu.stage2_tlb.misses            0                       # DTB misses
system.cpu.istage2_mmu.stage2_tlb.accesses            0                       # DTB accesses
system.cpu.itb.walker.walks                         0                       # Table walker walks requested
system.cpu.itb.walker.walkRequestOrigin_Requested::Data            0                       # Table walker requests started/completed, data/inst
system.cpu.itb.walker.walkRequestOrigin_Requested::Inst            0                       # Table walker requests started/completed, data/inst
system.cpu.itb.walker.walkRequestOrigin_Requested::total            0                       # Table walker requests started/completed, data/inst
system.cpu.itb.walker.walkRequestOrigin_Completed::Data            0                       # Table walker requests started/completed, data/inst
system.cpu.itb.walker.walkRequestOrigin_Completed::Inst            0                       # Table walker requests started/completed, data/inst
system.cpu.itb.walker.walkRequestOrigin_Completed::total            0                       # Table walker requests started/completed, data/inst
system.cpu.itb.walker.walkRequestOrigin::total            0                       # Table walker requests started/completed, data/inst
system.cpu.itb.inst_hits                            0                       # ITB inst hits
system.cpu.itb.inst_misses                          0                       # ITB inst misses
system.cpu.itb.read_hits                            0                       # DTB read hits
system.cpu.itb.read_misses                          0                       # DTB read misses
system.cpu.itb.write_hits                           0                       # DTB write hits
system.cpu.itb.write_misses                         0                       # DTB write misses
system.cpu.itb.flush_tlb                            0                       # Number of times complete TLB was flushed
system.cpu.itb.flush_tlb_mva                        0                       # Number of times TLB was flushed by MVA
system.cpu.itb.flush_tlb_mva_asid                   0                       # Number of times TLB was flushed by MVA & ASID
system.cpu.itb.flush_tlb_asid                       0                       # Number of times TLB was flushed by ASID
system.cpu.itb.flush_entries                        0                       # Number of entries that have been flushed from TLB
system.cpu.itb.align_faults                         0                       # Number of TLB faults due to alignment restrictions
system.cpu.itb.prefetch_faults                      0                       # Number of TLB faults due to prefetch
system.cpu.itb.domain_faults                        0                       # Number of TLB faults due to domain restrictions
system.cpu.itb.perms_faults                         0                       # Number of TLB faults due to permissions restrictions
system.cpu.itb.read_accesses                        0                       # DTB read accesses
system.cpu.itb.write_accesses                       0                       # DTB write accesses
system.cpu.itb.inst_accesses                        0                       # ITB inst accesses
system.cpu.itb.hits                                 0                       # DTB hits
system.cpu.itb.misses                               0                       # DTB misses
system.cpu.itb.accesses                             0                       # DTB accesses
system.cpu.workload.num_syscalls                   15                       # Number of system calls
system.cpu.numCycles                          2308481                       # number of cpu cycles simulated
system.cpu.numWorkItemsStarted                      0                       # number of work items this cpu started
system.cpu.numWorkItemsCompleted                    0                       # number of work items this cpu completed
system.cpu.fetch.icacheStallCycles             620046                       # Number of cycles fetch is stalled on an Icache miss
system.cpu.fetch.Insts                        4563089                       # Number of instructions fetch has processed
system.cpu.fetch.Branches                      315145                       # Number of branches that fetch encountered
system.cpu.fetch.predictedBranches             309681                       # Number of branches that fetch has predicted taken
system.cpu.fetch.Cycles                       1638871                       # Number of cycles fetch has run and was not squashing or blocked
system.cpu.fetch.SquashCycles                   10683                       # Number of cycles fetch has spent squashing
system.cpu.fetch.CacheLines                    602439                       # Number of cache lines fetched
system.cpu.fetch.IcacheSquashes                   944                       # Number of outstanding Icache misses that were squashed
system.cpu.fetch.rateDist::samples            2264258                       # Number of instructions fetched each cycle (Total)
system.cpu.fetch.rateDist::mean              2.031422                       # Number of instructions fetched each cycle (Total)
system.cpu.fetch.rateDist::stdev             2.982530                       # Number of instructions fetched each cycle (Total)
system.cpu.fetch.rateDist::underflows               0      0.00%      0.00% # Number of instructions fetched each cycle (Total)
system.cpu.fetch.rateDist::0                  1399877     61.82%     61.82% # Number of instructions fetched each cycle (Total)
system.cpu.fetch.rateDist::1                    88875      3.93%     65.75% # Number of instructions fetched each cycle (Total)
system.cpu.fetch.rateDist::2                    65294      2.88%     68.63% # Number of instructions fetched each cycle (Total)
system.cpu.fetch.rateDist::3                    90615      4.00%     72.64% # Number of instructions fetched each cycle (Total)
system.cpu.fetch.rateDist::4                    72117      3.19%     75.82% # Number of instructions fetched each cycle (Total)
system.cpu.fetch.rateDist::5                    61873      2.73%     78.55% # Number of instructions fetched each cycle (Total)
system.cpu.fetch.rateDist::6                    77700      3.43%     81.98% # Number of instructions fetched each cycle (Total)
system.cpu.fetch.rateDist::7                   218934      9.67%     91.65% # Number of instructions fetched each cycle (Total)
system.cpu.fetch.rateDist::8                   188973      8.35%    100.00% # Number of instructions fetched each cycle (Total)
system.cpu.fetch.rateDist::overflows                0      0.00%    100.00% # Number of instructions fetched each cycle (Total)
system.cpu.fetch.rateDist::min_value                0                       # Number of instructions fetched each cycle (Total)
system.cpu.fetch.rateDist::max_value                8                       # Number of instructions fetched each cycle (Total)
system.cpu.fetch.rateDist::total              2264258                       # Number of instructions fetched each cycle (Total)
system.cpu.fetch.branchRate                  0.136516                       # Number of branch fetches per cycle
system.cpu.fetch.rate                        1.976663                       # Number of inst fetches per cycle
system.cpu.decode.IdleCycles                   215014                       # Number of cycles decode is idle
system.cpu.decode.BlockedCycles               1481673                       # Number of cycles decode is blocked
system.cpu.decode.RunCycles                     76399                       # Number of cycles decode is running
system.cpu.decode.UnblockCycles                486154                       # Number of cycles decode is unblocking
system.cpu.decode.SquashCycles                   5018                       # Number of cycles decode is squashing
system.cpu.decode.BranchResolved                 1209                       # Number of times decode resolved a branch
system.cpu.decode.BranchMispred                   334                       # Number of times decode detected a branch misprediction
system.cpu.decode.DecodedInsts                4432339                       # Number of instructions handled by decode
system.cpu.decode.SquashedInsts                  1235                       # Number of squashed instructions handled by decode
system.cpu.rename.SquashCycles                   5018                       # Number of cycles rename is squashing
system.cpu.rename.IdleCycles                   357752                       # Number of cycles rename is idle
system.cpu.rename.BlockCycles                  149494                       # Number of cycles rename is blocking
system.cpu.rename.serializeStallCycles           7774                       # count of cycles rename stalled for serializing inst
system.cpu.rename.RunCycles                    418668                       # Number of cycles rename is running
system.cpu.rename.UnblockCycles               1325552                       # Number of cycles rename is unblocking
system.cpu.rename.RenamedInsts                4415738                       # Number of instructions processed by rename
system.cpu.rename.ROBFullEvents                    15                       # Number of times rename has blocked due to ROB full
system.cpu.rename.IQFullEvents                1136806                       # Number of times rename has blocked due to IQ full
system.cpu.rename.LQFullEvents                  27811                       # Number of times rename has blocked due to LQ full
system.cpu.rename.SQFullEvents                 119308                       # Number of times rename has blocked due to SQ full
system.cpu.rename.RenamedOperands             5801485                       # Number of destination operands rename has renamed
system.cpu.rename.RenameLookups              21806922                       # Number of register rename lookups that rename has made
system.cpu.rename.int_rename_lookups          7323950                       # Number of integer rename lookups
system.cpu.rename.fp_rename_lookups                22                       # Number of floating rename lookups
system.cpu.rename.CommittedMaps               5447244                       # Number of HB maps that are committed
system.cpu.rename.UndoneMaps                   354241                       # Number of HB maps that are undone due to squashing
system.cpu.rename.serializingInsts                135                       # count of serializing insts renamed
system.cpu.rename.tempSerializingInsts            135                       # count of temporary serializing insts renamed
system.cpu.rename.skidInsts                   2312634                       # count of insts added to the skid buffer
system.cpu.memDep0.insertedLoads              1135544                       # Number of loads inserted to the mem dependence unit.
system.cpu.memDep0.insertedStores               60372                       # Number of stores inserted to the mem dependence unit.
system.cpu.memDep0.conflictingLoads              8753                       # Number of conflicting loads.
system.cpu.memDep0.conflictingStores              412                       # Number of conflicting stores.
system.cpu.iq.iqInstsAdded                    4393359                       # Number of instructions added to the IQ (excludes non-spec)
system.cpu.iq.iqNonSpecInstsAdded                 269                       # Number of non-speculative instructions added to the IQ
system.cpu.iq.iqInstsIssued                   4164545                       # Number of instructions issued
system.cpu.iq.iqSquashedInstsIssued             15115                       # Number of squashed instructions issued
system.cpu.iq.iqSquashedInstsExamined          251681                       # Number of squashed instructions iterated over during squash; mainly for profiling
system.cpu.iq.iqSquashedOperandsExamined      1178562                       # Number of squashed operands that are examined and possibly removed from graph
system.cpu.iq.iqSquashedNonSpecRemoved             94                       # Number of squashed non-spec instructions that were removed
system.cpu.iq.issued_per_cycle::samples       2264258                       # Number of insts issued each cycle
system.cpu.iq.issued_per_cycle::mean         1.839254                       # Number of insts issued each cycle
system.cpu.iq.issued_per_cycle::stdev        0.532597                       # Number of insts issued each cycle
system.cpu.iq.issued_per_cycle::underflows            0      0.00%      0.00% # Number of insts issued each cycle
system.cpu.iq.issued_per_cycle::0              168407      7.44%      7.44% # Number of insts issued each cycle
system.cpu.iq.issued_per_cycle::1               27157      1.20%      8.64% # Number of insts issued each cycle
system.cpu.iq.issued_per_cycle::2             2068694     91.36%    100.00% # Number of insts issued each cycle
system.cpu.iq.issued_per_cycle::overflows            0      0.00%    100.00% # Number of insts issued each cycle
system.cpu.iq.issued_per_cycle::min_value            0                       # Number of insts issued each cycle
system.cpu.iq.issued_per_cycle::max_value            2                       # Number of insts issued each cycle
system.cpu.iq.issued_per_cycle::total         2264258                       # Number of insts issued each cycle
system.cpu.iq.fu_full::No_OpClass                   0                       # attempts to use FU when none available
system.cpu.iq.fu_full::IntAlu                       0                       # attempts to use FU when none available
system.cpu.iq.fu_full::IntMult                      0                       # attempts to use FU when none available
system.cpu.iq.fu_full::IntDiv                       0                       # attempts to use FU when none available
system.cpu.iq.fu_full::FloatAdd                     0                       # attempts to use FU when none available
system.cpu.iq.fu_full::FloatCmp                     0                       # attempts to use FU when none available
system.cpu.iq.fu_full::FloatCvt                     0                       # attempts to use FU when none available
system.cpu.iq.fu_full::FloatMult                    0                       # attempts to use FU when none available
system.cpu.iq.fu_full::FloatDiv                     0                       # attempts to use FU when none available
system.cpu.iq.fu_full::FloatSqrt                    0                       # attempts to use FU when none available
system.cpu.iq.fu_full::SimdAdd                      0                       # attempts to use FU when none available
system.cpu.iq.fu_full::SimdAddAcc                   0                       # attempts to use FU when none available
system.cpu.iq.fu_full::SimdAlu                      0                       # attempts to use FU when none available
system.cpu.iq.fu_full::SimdCmp                      0                       # attempts to use FU when none available
system.cpu.iq.fu_full::SimdCvt                      0                       # attempts to use FU when none available
system.cpu.iq.fu_full::SimdMisc                     0                       # attempts to use FU when none available
system.cpu.iq.fu_full::SimdMult                     0                       # attempts to use FU when none available
system.cpu.iq.fu_full::SimdMultAcc                  0                       # attempts to use FU when none available
system.cpu.iq.fu_full::SimdShift                    0                       # attempts to use FU when none available
system.cpu.iq.fu_full::SimdShiftAcc                 0                       # attempts to use FU when none available
system.cpu.iq.fu_full::SimdSqrt                     0                       # attempts to use FU when none available
system.cpu.iq.fu_full::SimdFloatAdd                 0                       # attempts to use FU when none available
system.cpu.iq.fu_full::SimdFloatAlu                 0                       # attempts to use FU when none available
system.cpu.iq.fu_full::SimdFloatCmp                 0                       # attempts to use FU when none available
system.cpu.iq.fu_full::SimdFloatCvt                 0                       # attempts to use FU when none available
system.cpu.iq.fu_full::SimdFloatDiv                 0                       # attempts to use FU when none available
system.cpu.iq.fu_full::SimdFloatMisc                0                       # attempts to use FU when none available
system.cpu.iq.fu_full::SimdFloatMult                0                       # attempts to use FU when none available
system.cpu.iq.fu_full::SimdFloatMultAcc             0                       # attempts to use FU when none available
system.cpu.iq.fu_full::SimdFloatSqrt                0                       # attempts to use FU when none available
system.cpu.iq.fu_full::MemRead                      0                       # attempts to use FU when none available
system.cpu.iq.fu_full::MemWrite                     0                       # attempts to use FU when none available
system.cpu.iq.fu_full::IprAccess                    0                       # attempts to use FU when none available
system.cpu.iq.fu_full::InstPrefetch                 0                       # attempts to use FU when none available
system.cpu.iq.FU_type_0::No_OpClass                 0      0.00%      0.00% # Type of FU issued
system.cpu.iq.FU_type_0::IntAlu               2233067     53.62%     53.62% # Type of FU issued
system.cpu.iq.FU_type_0::IntMult               794807     19.09%     72.71% # Type of FU issued
system.cpu.iq.FU_type_0::IntDiv                     0      0.00%     72.71% # Type of FU issued
system.cpu.iq.FU_type_0::FloatAdd                   0      0.00%     72.71% # Type of FU issued
system.cpu.iq.FU_type_0::FloatCmp                   0      0.00%     72.71% # Type of FU issued
system.cpu.iq.FU_type_0::FloatCvt                   0      0.00%     72.71% # Type of FU issued
system.cpu.iq.FU_type_0::FloatMult                  0      0.00%     72.71% # Type of FU issued
system.cpu.iq.FU_type_0::FloatDiv                   0      0.00%     72.71% # Type of FU issued
system.cpu.iq.FU_type_0::FloatSqrt                  0      0.00%     72.71% # Type of FU issued
system.cpu.iq.FU_type_0::SimdAdd                    0      0.00%     72.71% # Type of FU issued
system.cpu.iq.FU_type_0::SimdAddAcc                 0      0.00%     72.71% # Type of FU issued
system.cpu.iq.FU_type_0::SimdAlu                    0      0.00%     72.71% # Type of FU issued
system.cpu.iq.FU_type_0::SimdCmp                    0      0.00%     72.71% # Type of FU issued
system.cpu.iq.FU_type_0::SimdCvt                    0      0.00%     72.71% # Type of FU issued
system.cpu.iq.FU_type_0::SimdMisc                   0      0.00%     72.71% # Type of FU issued
system.cpu.iq.FU_type_0::SimdMult                   0      0.00%     72.71% # Type of FU issued
system.cpu.iq.FU_type_0::SimdMultAcc                0      0.00%     72.71% # Type of FU issued
system.cpu.iq.FU_type_0::SimdShift                  0      0.00%     72.71% # Type of FU issued
system.cpu.iq.FU_type_0::SimdShiftAcc               0      0.00%     72.71% # Type of FU issued
system.cpu.iq.FU_type_0::SimdSqrt                   0      0.00%     72.71% # Type of FU issued
system.cpu.iq.FU_type_0::SimdFloatAdd               0      0.00%     72.71% # Type of FU issued
system.cpu.iq.FU_type_0::SimdFloatAlu               0      0.00%     72.71% # Type of FU issued
system.cpu.iq.FU_type_0::SimdFloatCmp               0      0.00%     72.71% # Type of FU issued
system.cpu.iq.FU_type_0::SimdFloatCvt               0      0.00%     72.71% # Type of FU issued
system.cpu.iq.FU_type_0::SimdFloatDiv               0      0.00%     72.71% # Type of FU issued
system.cpu.iq.FU_type_0::SimdFloatMisc              3      0.00%     72.71% # Type of FU issued
system.cpu.iq.FU_type_0::SimdFloatMult              0      0.00%     72.71% # Type of FU issued
system.cpu.iq.FU_type_0::SimdFloatMultAcc            0      0.00%     72.71% # Type of FU issued
system.cpu.iq.FU_type_0::SimdFloatSqrt              0      0.00%     72.71% # Type of FU issued
system.cpu.iq.FU_type_0::MemRead              1079148     25.91%     98.62% # Type of FU issued
system.cpu.iq.FU_type_0::MemWrite               57520      1.38%    100.00% # Type of FU issued
system.cpu.iq.FU_type_0::IprAccess                  0      0.00%    100.00% # Type of FU issued
system.cpu.iq.FU_type_0::InstPrefetch               0      0.00%    100.00% # Type of FU issued
system.cpu.iq.FU_type_0::total                4164545                       # Type of FU issued
system.cpu.iq.rate                           1.804020                       # Inst issue rate
system.cpu.iq.fu_busy_cnt                           0                       # FU busy when requested
system.cpu.iq.fu_busy_rate                          0                       # FU busy rate (busy events/executed inst)
system.cpu.iq.int_inst_queue_reads           10608407                       # Number of integer instruction queue reads
system.cpu.iq.int_inst_queue_writes           4645321                       # Number of integer instruction queue writes
system.cpu.iq.int_inst_queue_wakeup_accesses      4154383                       # Number of integer instruction queue wakeup accesses
system.cpu.iq.fp_inst_queue_reads                  56                       # Number of floating instruction queue reads
system.cpu.iq.fp_inst_queue_writes                 28                       # Number of floating instruction queue writes
system.cpu.iq.fp_inst_queue_wakeup_accesses           28                       # Number of floating instruction queue wakeup accesses
system.cpu.iq.int_alu_accesses                4164517                       # Number of integer alu accesses
system.cpu.iq.fp_alu_accesses                      28                       # Number of floating point alu accesses
system.cpu.iew.lsq.thread0.forwLoads              130                       # Number of loads that had data forwarded from stores
system.cpu.iew.lsq.thread0.invAddrLoads             0                       # Number of loads ignored due to an invalid address
system.cpu.iew.lsq.thread0.squashedLoads        67086                       # Number of loads squashed
system.cpu.iew.lsq.thread0.ignoredResponses            2                       # Number of memory responses ignored because the instruction is squashed
system.cpu.iew.lsq.thread0.memOrderViolation           40                       # Number of memory ordering violations
system.cpu.iew.lsq.thread0.squashedStores         3237                       # Number of stores squashed
system.cpu.iew.lsq.thread0.invAddrSwpfs             0                       # Number of software prefetches ignored due to an invalid address
system.cpu.iew.lsq.thread0.blockedLoads             0                       # Number of blocked loads due to partial load-store forwarding
system.cpu.iew.lsq.thread0.rescheduledLoads           64                       # Number of loads that were rescheduled
system.cpu.iew.lsq.thread0.cacheBlocked            76                       # Number of times an access to memory failed due to the cache being blocked
system.cpu.iew.iewIdleCycles                        0                       # Number of cycles IEW is idle
system.cpu.iew.iewSquashCycles                   5018                       # Number of cycles IEW is squashing
system.cpu.iew.iewBlockCycles                   30857                       # Number of cycles IEW is blocking
system.cpu.iew.iewUnblockCycles                   491                       # Number of cycles IEW is unblocking
system.cpu.iew.iewDispatchedInsts             4393635                       # Number of instructions dispatched to IQ
system.cpu.iew.iewDispSquashedInsts               105                       # Number of squashed instructions skipped by dispatch
system.cpu.iew.iewDispLoadInsts               1135544                       # Number of dispatched load instructions
system.cpu.iew.iewDispStoreInsts                60372                       # Number of dispatched store instructions
system.cpu.iew.iewDispNonSpecInsts                122                       # Number of dispatched non-speculative instructions
system.cpu.iew.iewIQFullEvents                     28                       # Number of times the IQ has become full, causing a stall
system.cpu.iew.iewLSQFullEvents                   448                       # Number of times the LSQ has become full, causing a stall
system.cpu.iew.memOrderViolationEvents             40                       # Number of memory order violations
system.cpu.iew.predictedTakenIncorrect           4413                       # Number of branches that were predicted taken incorrectly
system.cpu.iew.predictedNotTakenIncorrect          595                       # Number of branches that were predicted not taken incorrectly
system.cpu.iew.branchMispredicts                 5008                       # Number of branch mispredicts detected at execute
system.cpu.iew.iewExecutedInsts               4160044                       # Number of executed instructions
system.cpu.iew.iewExecLoadInsts               1074906                       # Number of load instructions executed
system.cpu.iew.iewExecSquashedInsts              4501                       # Number of squashed instructions skipped in execute
system.cpu.iew.exec_swp                             0                       # number of swp insts executed
system.cpu.iew.exec_nop                             7                       # number of nop insts executed
system.cpu.iew.exec_refs                      1132326                       # number of memory reference insts executed
system.cpu.iew.exec_branches                   281908                       # Number of branches executed
system.cpu.iew.exec_stores                      57420                       # Number of stores executed
system.cpu.iew.exec_rate                     1.802070                       # Inst execution rate
system.cpu.iew.wb_sent                        4154699                       # cumulative count of insts sent to commit
system.cpu.iew.wb_count                       4154411                       # cumulative count of insts written-back
system.cpu.iew.wb_producers                   3799217                       # num instructions producing a value
system.cpu.iew.wb_consumers                   6410931                       # num instructions consuming a value
system.cpu.iew.wb_penalized                         0                       # number of instrctions required to write to 'other' IQ
system.cpu.iew.wb_rate                       1.799630                       # insts written-back per cycle
system.cpu.iew.wb_fanout                     0.592615                       # average fanout of values written-back
system.cpu.iew.wb_penalized_rate                    0                       # fraction of instructions written-back that wrote to 'other' IQ
system.cpu.commit.commitSquashedInsts          251694                       # The number of squashed insts skipped by commit
system.cpu.commit.commitNonSpecStalls             175                       # The number of times commit has been forced to stall to communicate backwards
system.cpu.commit.branchMispredicts              4972                       # The number of times a branch was mispredicted
system.cpu.commit.committed_per_cycle::samples      2229487                       # Number of insts commited each cycle
system.cpu.commit.committed_per_cycle::mean     1.857803                       # Number of insts commited each cycle
system.cpu.commit.committed_per_cycle::stdev     2.515654                       # Number of insts commited each cycle
system.cpu.commit.committed_per_cycle::underflows            0      0.00%      0.00% # Number of insts commited each cycle
system.cpu.commit.committed_per_cycle::0       792704     35.56%     35.56% # Number of insts commited each cycle
system.cpu.commit.committed_per_cycle::1       610676     27.39%     62.95% # Number of insts commited each cycle
system.cpu.commit.committed_per_cycle::2       397762     17.84%     80.79% # Number of insts commited each cycle
system.cpu.commit.committed_per_cycle::3       119003      5.34%     86.12% # Number of insts commited each cycle
system.cpu.commit.committed_per_cycle::4         6462      0.29%     86.41% # Number of insts commited each cycle
system.cpu.commit.committed_per_cycle::5        12049      0.54%     86.96% # Number of insts commited each cycle
system.cpu.commit.committed_per_cycle::6        11876      0.53%     87.49% # Number of insts commited each cycle
system.cpu.commit.committed_per_cycle::7        10251      0.46%     87.95% # Number of insts commited each cycle
system.cpu.commit.committed_per_cycle::8       268704     12.05%    100.00% # Number of insts commited each cycle
system.cpu.commit.committed_per_cycle::overflows            0      0.00%    100.00% # Number of insts commited each cycle
system.cpu.commit.committed_per_cycle::min_value            0                       # Number of insts commited each cycle
system.cpu.commit.committed_per_cycle::max_value            8                       # Number of insts commited each cycle
system.cpu.commit.committed_per_cycle::total      2229487                       # Number of insts commited each cycle
system.cpu.commit.committedInsts              4109449                       # Number of instructions committed
system.cpu.commit.committedOps                4141947                       # Number of ops (including micro ops) committed
system.cpu.commit.swp_count                         0                       # Number of s/w prefetches committed
system.cpu.commit.refs                        1125593                       # Number of memory references committed
system.cpu.commit.loads                       1068458                       # Number of loads committed
system.cpu.commit.membars                         107                       # Number of memory barriers committed
system.cpu.commit.branches                     281155                       # Number of branches committed
system.cpu.commit.fp_insts                         28                       # Number of committed floating point instructions.
system.cpu.commit.int_insts                   3861340                       # Number of committed integer instructions.
system.cpu.commit.function_calls                  305                       # Number of function calls committed.
system.cpu.commit.op_class_0::No_OpClass            0      0.00%      0.00% # Class of committed instruction
system.cpu.commit.op_class_0::IntAlu          2221682     53.64%     53.64% # Class of committed instruction
system.cpu.commit.op_class_0::IntMult          794669     19.19%     72.82% # Class of committed instruction
system.cpu.commit.op_class_0::IntDiv                0      0.00%     72.82% # Class of committed instruction
system.cpu.commit.op_class_0::FloatAdd              0      0.00%     72.82% # Class of committed instruction
system.cpu.commit.op_class_0::FloatCmp              0      0.00%     72.82% # Class of committed instruction
system.cpu.commit.op_class_0::FloatCvt              0      0.00%     72.82% # Class of committed instruction
system.cpu.commit.op_class_0::FloatMult             0      0.00%     72.82% # Class of committed instruction
system.cpu.commit.op_class_0::FloatDiv              0      0.00%     72.82% # Class of committed instruction
system.cpu.commit.op_class_0::FloatSqrt             0      0.00%     72.82% # Class of committed instruction
system.cpu.commit.op_class_0::SimdAdd               0      0.00%     72.82% # Class of committed instruction
system.cpu.commit.op_class_0::SimdAddAcc            0      0.00%     72.82% # Class of committed instruction
system.cpu.commit.op_class_0::SimdAlu               0      0.00%     72.82% # Class of committed instruction
system.cpu.commit.op_class_0::SimdCmp               0      0.00%     72.82% # Class of committed instruction
system.cpu.commit.op_class_0::SimdCvt               0      0.00%     72.82% # Class of committed instruction
system.cpu.commit.op_class_0::SimdMisc              0      0.00%     72.82% # Class of committed instruction
system.cpu.commit.op_class_0::SimdMult              0      0.00%     72.82% # Class of committed instruction
system.cpu.commit.op_class_0::SimdMultAcc            0      0.00%     72.82% # Class of committed instruction
system.cpu.commit.op_class_0::SimdShift             0      0.00%     72.82% # Class of committed instruction
system.cpu.commit.op_class_0::SimdShiftAcc            0      0.00%     72.82% # Class of committed instruction
system.cpu.commit.op_class_0::SimdSqrt              0      0.00%     72.82% # Class of committed instruction
system.cpu.commit.op_class_0::SimdFloatAdd            0      0.00%     72.82% # Class of committed instruction
system.cpu.commit.op_class_0::SimdFloatAlu            0      0.00%     72.82% # Class of committed instruction
system.cpu.commit.op_class_0::SimdFloatCmp            0      0.00%     72.82% # Class of committed instruction
system.cpu.commit.op_class_0::SimdFloatCvt            0      0.00%     72.82% # Class of committed instruction
system.cpu.commit.op_class_0::SimdFloatDiv            0      0.00%     72.82% # Class of committed instruction
system.cpu.commit.op_class_0::SimdFloatMisc            3      0.00%     72.82% # Class of committed instruction
system.cpu.commit.op_class_0::SimdFloatMult            0      0.00%     72.82% # Class of committed instruction
system.cpu.commit.op_class_0::SimdFloatMultAcc            0      0.00%     72.82% # Class of committed instruction
system.cpu.commit.op_class_0::SimdFloatSqrt            0      0.00%     72.82% # Class of committed instruction
system.cpu.commit.op_class_0::MemRead         1068458     25.80%     98.62% # Class of committed instruction
system.cpu.commit.op_class_0::MemWrite          57135      1.38%    100.00% # Class of committed instruction
system.cpu.commit.op_class_0::IprAccess             0      0.00%    100.00% # Class of committed instruction
system.cpu.commit.op_class_0::InstPrefetch            0      0.00%    100.00% # Class of committed instruction
system.cpu.commit.op_class_0::total           4141947                       # Class of committed instruction
system.cpu.commit.bw_lim_events                268704                       # number cycles where commit BW limit reached
system.cpu.rob.rob_reads                      6354241                       # The number of ROB reads
system.cpu.rob.rob_writes                     8822060                       # The number of ROB writes
system.cpu.timesIdled                             436                       # Number of times that the entire CPU went into an idle state and unscheduled itself
system.cpu.idleCycles                           44223                       # Total number of cycles that the CPU has spent unscheduled due to idling
system.cpu.committedInsts                     4109449                       # Number of Instructions Simulated
system.cpu.committedOps                       4141947                       # Number of Ops (including micro ops) Simulated
system.cpu.cpi                               0.561750                       # CPI: Cycles Per Instruction
system.cpu.cpi_total                         0.561750                       # CPI: Total CPI of All Threads
system.cpu.ipc                               1.780153                       # IPC: Instructions Per Cycle
system.cpu.ipc_total                         1.780153                       # IPC: Total IPC of All Threads
system.cpu.int_regfile_reads                  6883001                       # number of integer regfile reads
system.cpu.int_regfile_writes                 3800597                       # number of integer regfile writes
system.cpu.fp_regfile_reads                        22                       # number of floating regfile reads
system.cpu.fp_regfile_writes                        6                       # number of floating regfile writes
system.cpu.cc_regfile_reads                  15688802                       # number of cc regfile reads
system.cpu.cc_regfile_writes                  1659836                       # number of cc regfile writes
system.cpu.misc_regfile_reads                 1128605                       # number of misc regfile reads
system.cpu.misc_regfile_writes                    106                       # number of misc regfile writes
system.cpu.dcache.tags.replacements             12979                       # number of replacements
system.cpu.dcache.tags.tagsinuse           986.274128                       # Cycle average of tags in use
system.cpu.dcache.tags.total_refs             1049242                       # Total number of references to valid blocks.
system.cpu.dcache.tags.sampled_refs             14003                       # Sample count of references to valid blocks.
system.cpu.dcache.tags.avg_refs             74.929801                       # Average number of references to valid blocks.
system.cpu.dcache.tags.warmup_cycle          71280250                       # Cycle when the warmup percentage was hit.
system.cpu.dcache.tags.occ_blocks::cpu.data   986.274128                       # Average occupied blocks per requestor
system.cpu.dcache.tags.occ_percent::cpu.data     0.963158                       # Average percentage of cache occupancy
system.cpu.dcache.tags.occ_percent::total     0.963158                       # Average percentage of cache occupancy
system.cpu.dcache.tags.occ_task_id_blocks::1024         1024                       # Occupied blocks per task id
system.cpu.dcache.tags.age_task_id_blocks_1024::0           70                       # Occupied blocks per task id
system.cpu.dcache.tags.age_task_id_blocks_1024::1           81                       # Occupied blocks per task id
system.cpu.dcache.tags.age_task_id_blocks_1024::2          774                       # Occupied blocks per task id
system.cpu.dcache.tags.age_task_id_blocks_1024::3           99                       # Occupied blocks per task id
system.cpu.dcache.tags.occ_task_id_percent::1024            1                       # Percentage of cache occupancy per task id
system.cpu.dcache.tags.tag_accesses           2277175                       # Number of tag accesses
system.cpu.dcache.tags.data_accesses          2277175                       # Number of data accesses
[...]
system.l2.ReadExReq_hits::cpu.data               5055                       # number of ReadExReq hits
system.l2.ReadExReq_hits::total                  5055                       # number of ReadExReq hits
system.l2.demand_hits::cpu.inst                    75                       # number of demand (read+write) hits
system.l2.demand_hits::cpu.data                 12205                       # number of demand (read+write) hits
system.l2.demand_hits::total                    12280                       # number of demand (read+write) hits
system.l2.overall_hits::cpu.inst                   75                       # number of overall hits
system.l2.overall_hits::cpu.data                12205                       # number of overall hits
system.l2.overall_hits::total                   12280                       # number of overall hits
system.l2.ReadReq_misses::cpu.inst                559                       # number of ReadReq misses
system.l2.ReadReq_misses::cpu.data                135                       # number of ReadReq misses
system.l2.ReadReq_misses::total                   694                       # number of ReadReq misses
system.l2.ReadExReq_misses::cpu.data             1663                       # number of ReadExReq misses
system.l2.ReadExReq_misses::total                1663                       # number of ReadExReq misses
system.l2.demand_misses::cpu.inst                 559                       # number of demand (read+write) misses
system.l2.demand_misses::cpu.data                1798                       # number of demand (read+write) misses
system.l2.demand_misses::total                   2357                       # number of demand (read+write) misses
system.l2.overall_misses::cpu.inst                559                       # number of overall misses
system.l2.overall_misses::cpu.data               1798                       # number of overall misses
system.l2.overall_misses::total                  2357                       # number of overall misses
system.l2.ReadReq_miss_latency::cpu.inst     43025250                       # number of ReadReq miss cycles
system.l2.ReadReq_miss_latency::cpu.data     11209500                       # number of ReadReq miss cycles
system.l2.ReadReq_miss_latency::total        54234750                       # number of ReadReq miss cycles
system.l2.ReadExReq_miss_latency::cpu.data    121531750                       # number of ReadExReq miss cycles
system.l2.ReadExReq_miss_latency::total     121531750                       # number of ReadExReq miss cycles
system.l2.demand_miss_latency::cpu.inst      43025250                       # number of demand (read+write) miss cycles
system.l2.demand_miss_latency::cpu.data     132741250                       # number of demand (read+write) miss cycles
system.l2.demand_miss_latency::total        175766500                       # number of demand (read+write) miss cycles
system.l2.overall_miss_latency::cpu.inst     43025250                       # number of overall miss cycles
system.l2.overall_miss_latency::cpu.data    132741250                       # number of overall miss cycles
system.l2.overall_miss_latency::total       175766500                       # number of overall miss cycles
system.l2.ReadReq_accesses::cpu.inst              634                       # number of ReadReq accesses(hits+misses)
system.l2.ReadReq_accesses::cpu.data             7285                       # number of ReadReq accesses(hits+misses)
system.l2.ReadReq_accesses::total                7919                       # number of ReadReq accesses(hits+misses)
system.l2.Writeback_accesses::writebacks        12838                       # number of Writeback accesses(hits+misses)
system.l2.Writeback_accesses::total             12838                       # number of Writeback accesses(hits+misses)
system.l2.ReadExReq_accesses::cpu.data           6718                       # number of ReadExReq accesses(hits+misses)
system.l2.ReadExReq_accesses::total              6718                       # number of ReadExReq accesses(hits+misses)
system.l2.demand_accesses::cpu.inst               634                       # number of demand (read+write) accesses
system.l2.demand_accesses::cpu.data             14003                       # number of demand (read+write) accesses
system.l2.demand_accesses::total                14637                       # number of demand (read+write) accesses
system.l2.overall_accesses::cpu.inst              634                       # number of overall (read+write) accesses
system.l2.overall_accesses::cpu.data            14003                       # number of overall (read+write) accesses
system.l2.overall_accesses::total               14637                       # number of overall (read+write) accesses
system.l2.ReadReq_miss_rate::cpu.inst        0.881703                       # miss rate for ReadReq accesses
system.l2.ReadReq_miss_rate::cpu.data        0.018531                       # miss rate for ReadReq accesses
system.l2.ReadReq_miss_rate::total           0.087637                       # miss rate for ReadReq accesses
system.l2.ReadExReq_miss_rate::cpu.data      0.247544                       # miss rate for ReadExReq accesses
system.l2.ReadExReq_miss_rate::total         0.247544                       # miss rate for ReadExReq accesses
system.l2.demand_miss_rate::cpu.inst         0.881703                       # miss rate for demand accesses
system.l2.demand_miss_rate::cpu.data         0.128401                       # miss rate for demand accesses
system.l2.demand_miss_rate::total            0.161030                       # miss rate for demand accesses
system.l2.overall_miss_rate::cpu.inst        0.881703                       # miss rate for overall accesses
system.l2.overall_miss_rate::cpu.data        0.128401                       # miss rate for overall accesses
system.l2.overall_miss_rate::total           0.161030                       # miss rate for overall accesses
system.l2.ReadReq_avg_miss_latency::cpu.inst 76968.246869                       # average ReadReq miss latency
system.l2.ReadReq_avg_miss_latency::cpu.data 83033.333333                       # average ReadReq miss latency
system.l2.ReadReq_avg_miss_latency::total 78148.054755                       # average ReadReq miss latency
system.l2.ReadExReq_avg_miss_latency::cpu.data 73079.825616                       # average ReadExReq miss latency
system.l2.ReadExReq_avg_miss_latency::total 73079.825616                       # average ReadExReq miss latency
system.l2.demand_avg_miss_latency::cpu.inst 76968.246869                       # average overall miss latency
system.l2.demand_avg_miss_latency::cpu.data 73827.169077                       # average overall miss latency
system.l2.demand_avg_miss_latency::total 74572.125583                       # average overall miss latency
system.l2.overall_avg_miss_latency::cpu.inst 76968.246869                       # average overall miss latency
system.l2.overall_avg_miss_latency::cpu.data 73827.169077                       # average overall miss latency
system.l2.overall_avg_miss_latency::total 74572.125583                       # average overall miss latency
system.l2.blocked_cycles::no_mshrs                  0                       # number of cycles access was blocked
system.l2.blocked_cycles::no_targets                0                       # number of cycles access was blocked
system.l2.blocked::no_mshrs                         0                       # number of cycles access was blocked
system.l2.blocked::no_targets                       0                       # number of cycles access was blocked
system.l2.avg_blocked_cycles::no_mshrs            nan                       # average number of cycles each access was blocked
system.l2.avg_blocked_cycles::no_targets          nan                       # average number of cycles each access was blocked
system.l2.fast_writes                               0                       # number of fast writes performed
system.l2.cache_copies                              0                       # number of cache copies performed
system.l2.ReadReq_mshr_hits::cpu.data              15                       # number of ReadReq MSHR hits
system.l2.ReadReq_mshr_hits::total                 15                       # number of ReadReq MSHR hits
system.l2.demand_mshr_hits::cpu.data               15                       # number of demand (read+write) MSHR hits
system.l2.demand_mshr_hits::total                  15                       # number of demand (read+write) MSHR hits
system.l2.overall_mshr_hits::cpu.data              15                       # number of overall MSHR hits
system.l2.overall_mshr_hits::total                 15                       # number of overall MSHR hits
system.l2.ReadReq_mshr_misses::cpu.inst           559                       # number of ReadReq MSHR misses
system.l2.ReadReq_mshr_misses::cpu.data           120                       # number of ReadReq MSHR misses
system.l2.ReadReq_mshr_misses::total              679                       # number of ReadReq MSHR misses
system.l2.ReadExReq_mshr_misses::cpu.data         1663                       # number of ReadExReq MSHR misses
system.l2.ReadExReq_mshr_misses::total           1663                       # number of ReadExReq MSHR misses
system.l2.demand_mshr_misses::cpu.inst            559                       # number of demand (read+write) MSHR misses
system.l2.demand_mshr_misses::cpu.data           1783                       # number of demand (read+write) MSHR misses
system.l2.demand_mshr_misses::total              2342                       # number of demand (read+write) MSHR misses
system.l2.overall_mshr_misses::cpu.inst           559                       # number of overall MSHR misses
system.l2.overall_mshr_misses::cpu.data          1783                       # number of overall MSHR misses
system.l2.overall_mshr_misses::total             2342                       # number of overall MSHR misses
system.l2.ReadReq_mshr_miss_latency::cpu.inst     36063750                       # number of ReadReq MSHR miss cycles
system.l2.ReadReq_mshr_miss_latency::cpu.data      8676750                       # number of ReadReq MSHR miss cycles
system.l2.ReadReq_mshr_miss_latency::total     44740500                       # number of ReadReq MSHR miss cycles
system.l2.ReadExReq_mshr_miss_latency::cpu.data    100789250                       # number of ReadExReq MSHR miss cycles
system.l2.ReadExReq_mshr_miss_latency::total    100789250                       # number of ReadExReq MSHR miss cycles
system.l2.demand_mshr_miss_latency::cpu.inst     36063750                       # number of demand (read+write) MSHR miss cycles
system.l2.demand_mshr_miss_latency::cpu.data    109466000                       # number of demand (read+write) MSHR miss cycles
system.l2.demand_mshr_miss_latency::total    145529750                       # number of demand (read+write) MSHR miss cycles
system.l2.overall_mshr_miss_latency::cpu.inst     36063750                       # number of overall MSHR miss cycles
system.l2.overall_mshr_miss_latency::cpu.data    109466000                       # number of overall MSHR miss cycles
system.l2.overall_mshr_miss_latency::total    145529750                       # number of overall MSHR miss cycles
system.l2.ReadReq_mshr_miss_rate::cpu.inst     0.881703                       # mshr miss rate for ReadReq accesses
system.l2.ReadReq_mshr_miss_rate::cpu.data     0.016472                       # mshr miss rate for ReadReq accesses
system.l2.ReadReq_mshr_miss_rate::total      0.085743                       # mshr miss rate for ReadReq accesses
system.l2.ReadExReq_mshr_miss_rate::cpu.data     0.247544                       # mshr miss rate for ReadExReq accesses
system.l2.ReadExReq_mshr_miss_rate::total     0.247544                       # mshr miss rate for ReadExReq accesses
system.l2.demand_mshr_miss_rate::cpu.inst     0.881703                       # mshr miss rate for demand accesses
system.l2.demand_mshr_miss_rate::cpu.data     0.127330                       # mshr miss rate for demand accesses
system.l2.demand_mshr_miss_rate::total       0.160005                       # mshr miss rate for demand accesses
system.l2.overall_mshr_miss_rate::cpu.inst     0.881703                       # mshr miss rate for overall accesses
system.l2.overall_mshr_miss_rate::cpu.data     0.127330                       # mshr miss rate for overall accesses
system.l2.overall_mshr_miss_rate::total      0.160005                       # mshr miss rate for overall accesses
system.l2.ReadReq_avg_mshr_miss_latency::cpu.inst 64514.758497                       # average ReadReq mshr miss latency
system.l2.ReadReq_avg_mshr_miss_latency::cpu.data 72306.250000                       # average ReadReq mshr miss latency
system.l2.ReadReq_avg_mshr_miss_latency::total 65891.752577                       # average ReadReq mshr miss latency
system.l2.ReadExReq_avg_mshr_miss_latency::cpu.data 60606.885147                       # average ReadExReq mshr miss latency
system.l2.ReadExReq_avg_mshr_miss_latency::total 60606.885147                       # average ReadExReq mshr miss latency
system.l2.demand_avg_mshr_miss_latency::cpu.inst 64514.758497                       # average overall mshr miss latency
system.l2.demand_avg_mshr_miss_latency::cpu.data 61394.279305                       # average overall mshr miss latency
system.l2.demand_avg_mshr_miss_latency::total 62139.090521                       # average overall mshr miss latency
system.l2.overall_avg_mshr_miss_latency::cpu.inst 64514.758497                       # average overall mshr miss latency
system.l2.overall_avg_mshr_miss_latency::cpu.data 61394.279305                       # average overall mshr miss latency
system.l2.overall_avg_mshr_miss_latency::total 62139.090521                       # average overall mshr miss latency
system.l2.no_allocate_misses                        0                       # Number of misses that were no-allocate
system.membus.trans_dist::ReadReq                 679                       # Transaction distribution
system.membus.trans_dist::ReadResp                678                       # Transaction distribution
system.membus.trans_dist::ReadExReq              1663                       # Transaction distribution
system.membus.trans_dist::ReadExResp             1663                       # Transaction distribution
system.membus.pkt_count_system.l2.mem_side::system.mem_ctrls.port         4683                       # Packet count per connected master and slave (bytes)
system.membus.pkt_count::total                   4683                       # Packet count per connected master and slave (bytes)
system.membus.pkt_size_system.l2.mem_side::system.mem_ctrls.port       149824                       # Cumulative packet size per connected master and slave (bytes)
system.membus.pkt_size::total                  149824                       # Cumulative packet size per connected master and slave (bytes)
system.membus.snoops                                0                       # Total snoops (count)
system.membus.snoop_fanout::samples              2342                       # Request fanout histogram
system.membus.snoop_fanout::mean                    0                       # Request fanout histogram
system.membus.snoop_fanout::stdev                   0                       # Request fanout histogram
system.membus.snoop_fanout::underflows              0      0.00%      0.00% # Request fanout histogram
system.membus.snoop_fanout::0                    2342    100.00%    100.00% # Request fanout histogram
system.membus.snoop_fanout::1                       0      0.00%    100.00% # Request fanout histogram
system.membus.snoop_fanout::overflows               0      0.00%    100.00% # Request fanout histogram
system.membus.snoop_fanout::min_value               0                       # Request fanout histogram
system.membus.snoop_fanout::max_value               0                       # Request fanout histogram
system.membus.snoop_fanout::total                2342                       # Request fanout histogram
system.membus.reqLayer0.occupancy             2555500                       # Layer occupancy (ticks)
system.membus.reqLayer0.utilization               0.2                       # Layer utilization (%)
system.membus.respLayer1.occupancy           12333250                       # Layer occupancy (ticks)
system.membus.respLayer1.utilization              1.1                       # Layer utilization (%)
system.tol2bus.trans_dist::ReadReq               7919                       # Transaction distribution
system.tol2bus.trans_dist::ReadResp              7917                       # Transaction distribution
system.tol2bus.trans_dist::Writeback            12838                       # Transaction distribution
system.tol2bus.trans_dist::ReadExReq             6718                       # Transaction distribution
system.tol2bus.trans_dist::ReadExResp            6718                       # Transaction distribution
system.tol2bus.pkt_count_system.cpu.icache.mem_side::system.l2.cpu_side         1266                       # Packet count per connected master and slave (bytes)
system.tol2bus.pkt_count_system.cpu.dcache.mem_side::system.l2.cpu_side        40844                       # Packet count per connected master and slave (bytes)
system.tol2bus.pkt_count::total                 42110                       # Packet count per connected master and slave (bytes)
system.tol2bus.pkt_size_system.cpu.icache.mem_side::system.l2.cpu_side        40448                       # Cumulative packet size per connected master and slave (bytes)
system.tol2bus.pkt_size_system.cpu.dcache.mem_side::system.l2.cpu_side      1717824                       # Cumulative packet size per connected master and slave (bytes)
system.tol2bus.pkt_size::total                1758272                       # Cumulative packet size per connected master and slave (bytes)
system.tol2bus.snoops                               0                       # Total snoops (count)
system.tol2bus.snoop_fanout::samples            27475                       # Request fanout histogram
system.tol2bus.snoop_fanout::mean                   1                       # Request fanout histogram
system.tol2bus.snoop_fanout::stdev                  0                       # Request fanout histogram
system.tol2bus.snoop_fanout::underflows             0      0.00%      0.00% # Request fanout histogram
system.tol2bus.snoop_fanout::0                      0      0.00%      0.00% # Request fanout histogram
system.tol2bus.snoop_fanout::1                  27475    100.00%    100.00% # Request fanout histogram
system.tol2bus.snoop_fanout::2                      0      0.00%    100.00% # Request fanout histogram
system.tol2bus.snoop_fanout::overflows              0      0.00%    100.00% # Request fanout histogram
system.tol2bus.snoop_fanout::min_value              1                       # Request fanout histogram
system.tol2bus.snoop_fanout::max_value              1                       # Request fanout histogram
system.tol2bus.snoop_fanout::total              27475                       # Request fanout histogram
system.tol2bus.reqLayer0.occupancy           26575500                       # Layer occupancy (ticks)
system.tol2bus.reqLayer0.utilization              2.3                       # Layer utilization (%)
system.tol2bus.respLayer0.occupancy           1051750                       # Layer occupancy (ticks)
system.tol2bus.respLayer0.utilization             0.1                       # Layer utilization (%)
system.tol2bus.respLayer1.occupancy          21389485                       # Layer occupancy (ticks)
system.tol2bus.respLayer1.utilization             1.9                       # Layer utilization (%)

---------- End Simulation Statistics   ----------
