
---------- Begin Simulation Statistics ----------
sim_seconds                                  0.000260                       # Number of seconds simulated
sim_ticks                                   260144500                       # Number of ticks simulated
final_tick                                  260144500                       # Number of ticks from beginning of simulation (restored from checkpoints and never reset)
sim_freq                                 1000000000000                       # Frequency of simulated ticks
host_inst_rate                                 269031                       # Simulator instruction rate (inst/s)
host_op_rate                                   271155                       # Simulator op (including micro ops) rate (op/s)
host_tick_rate                               16582089                       # Simulator tick rate (ticks/s)
host_mem_usage                                 665888                       # Number of bytes of host memory used
host_seconds                                    15.69                       # Real time elapsed on the host
sim_insts                                     4220624                       # Number of instructions simulated
sim_ops                                       4253947                       # Number of ops (including micro ops) simulated
system.voltage_domain.voltage                       1                       # Voltage in Volts
system.clk_domain.clock                          1000                       # Clock period in ticks
system.mem_ctrls.bytes_read::cpu0.inst          35392                       # Number of bytes read from this memory
system.mem_ctrls.bytes_read::cpu0.data         115136                       # Number of bytes read from this memory
system.mem_ctrls.bytes_read::cpu1.inst           1088                       # Number of bytes read from this memory
system.mem_ctrls.bytes_read::cpu1.data            320                       # Number of bytes read from this memory
system.mem_ctrls.bytes_read::cpu2.inst            384                       # Number of bytes read from this memory
system.mem_ctrls.bytes_read::cpu2.data            256                       # Number of bytes read from this memory
system.mem_ctrls.bytes_read::cpu3.inst            256                       # Number of bytes read from this memory
system.mem_ctrls.bytes_read::cpu3.data            320                       # Number of bytes read from this memory
system.mem_ctrls.bytes_read::total             153152                       # Number of bytes read from this memory
system.mem_ctrls.bytes_inst_read::cpu0.inst        35392                       # Number of instructions bytes read from this memory
system.mem_ctrls.bytes_inst_read::cpu1.inst         1088                       # Number of instructions bytes read from this memory
system.mem_ctrls.bytes_inst_read::cpu2.inst          384                       # Number of instructions bytes read from this memory
system.mem_ctrls.bytes_inst_read::cpu3.inst          256                       # Number of instructions bytes read from this memory
system.mem_ctrls.bytes_inst_read::total         37120                       # Number of instructions bytes read from this memory
system.mem_ctrls.num_reads::cpu0.inst             553                       # Number of read requests responded to by this memory
system.mem_ctrls.num_reads::cpu0.data            1799                       # Number of read requests responded to by this memory
system.mem_ctrls.num_reads::cpu1.inst              17                       # Number of read requests responded to by this memory
system.mem_ctrls.num_reads::cpu1.data               5                       # Number of read requests responded to by this memory
system.mem_ctrls.num_reads::cpu2.inst               6                       # Number of read requests responded to by this memory
system.mem_ctrls.num_reads::cpu2.data               4                       # Number of read requests responded to by this memory
system.mem_ctrls.num_reads::cpu3.inst               4                       # Number of read requests responded to by this memory
system.mem_ctrls.num_reads::cpu3.data               5                       # Number of read requests responded to by this memory
system.mem_ctrls.num_reads::total                2393                       # Number of read requests responded to by this memory
system.mem_ctrls.bw_read::cpu0.inst         136047466                       # Total read bandwidth from this memory (bytes/s)
system.mem_ctrls.bw_read::cpu0.data         442584794                       # Total read bandwidth from this memory (bytes/s)
system.mem_ctrls.bw_read::cpu1.inst           4182291                       # Total read bandwidth from this memory (bytes/s)
system.mem_ctrls.bw_read::cpu1.data           1230086                       # Total read bandwidth from this memory (bytes/s)
system.mem_ctrls.bw_read::cpu2.inst           1476103                       # Total read bandwidth from this memory (bytes/s)
system.mem_ctrls.bw_read::cpu2.data            984068                       # Total read bandwidth from this memory (bytes/s)
system.mem_ctrls.bw_read::cpu3.inst            984068                       # Total read bandwidth from this memory (bytes/s)
system.mem_ctrls.bw_read::cpu3.data           1230086                       # Total read bandwidth from this memory (bytes/s)
system.mem_ctrls.bw_read::total             588718962                       # Total read bandwidth from this memory (bytes/s)
system.mem_ctrls.bw_inst_read::cpu0.inst    136047466                       # Instruction read bandwidth from this memory (bytes/s)
system.mem_ctrls.bw_inst_read::cpu1.inst      4182291                       # Instruction read bandwidth from this memory (bytes/s)
system.mem_ctrls.bw_inst_read::cpu2.inst      1476103                       # Instruction read bandwidth from this memory (bytes/s)
system.mem_ctrls.bw_inst_read::cpu3.inst       984068                       # Instruction read bandwidth from this memory (bytes/s)
system.mem_ctrls.bw_inst_read::total        142689928                       # Instruction read bandwidth from this memory (bytes/s)
system.mem_ctrls.bw_total::cpu0.inst        136047466                       # Total bandwidth to/from this memory (bytes/s)
system.mem_ctrls.bw_total::cpu0.data        442584794                       # Total bandwidth to/from this memory (bytes/s)
system.mem_ctrls.bw_total::cpu1.inst          4182291                       # Total bandwidth to/from this memory (bytes/s)
system.mem_ctrls.bw_total::cpu1.data          1230086                       # Total bandwidth to/from this memory (bytes/s)
system.mem_ctrls.bw_total::cpu2.inst          1476103                       # Total bandwidth to/from this memory (bytes/s)
system.mem_ctrls.bw_total::cpu2.data           984068                       # Total bandwidth to/from this memory (bytes/s)
system.mem_ctrls.bw_total::cpu3.inst           984068                       # Total bandwidth to/from this memory (bytes/s)
system.mem_ctrls.bw_total::cpu3.data          1230086                       # Total bandwidth to/from this memory (bytes/s)
system.mem_ctrls.bw_total::total            588718962                       # Total bandwidth to/from this memory (bytes/s)
system.mem_ctrls.readReqs                        2393                       # Number of read requests accepted
system.mem_ctrls.writeReqs                          0                       # Number of write requests accepted
system.mem_ctrls.readBursts                      2393                       # Number of DRAM read bursts, including those serviced by the write queue
system.mem_ctrls.writeBursts                        0                       # Number of DRAM write bursts, including those merged in the write queue
system.mem_ctrls.bytesReadDRAM                 153152                       # Total number of bytes read from DRAM
system.mem_ctrls.bytesReadWrQ                       0                       # Total number of bytes read from write queue
system.mem_ctrls.bytesWritten                       0                       # Total number of bytes written to DRAM
system.mem_ctrls.bytesReadSys                  153152                       # Total read bytes from the system interface side
system.mem_ctrls.bytesWrittenSys                    0                       # Total written bytes from the system interface side
system.mem_ctrls.servicedByWrQ                      0                       # Number of DRAM read bursts serviced by the write queue
system.mem_ctrls.mergedWrBursts                     0                       # Number of DRAM write bursts merged with an existing one
system.mem_ctrls.neitherReadNorWriteReqs           41                       # Number of requests that are neither read nor write
system.mem_ctrls.perBankRdBursts::0               129                       # Per bank write bursts
system.mem_ctrls.perBankRdBursts::1               127                       # Per bank write bursts
system.mem_ctrls.perBankRdBursts::2               144                       # Per bank write bursts
system.mem_ctrls.perBankRdBursts::3               204                       # Per bank write bursts
system.mem_ctrls.perBankRdBursts::4               156                       # Per bank write bursts
system.mem_ctrls.perBankRdBursts::5               150                       # Per bank write bursts
system.mem_ctrls.perBankRdBursts::6               224                       # Per bank write bursts
system.mem_ctrls.perBankRdBursts::7               162                       # Per bank write bursts
system.mem_ctrls.perBankRdBursts::8               142                       # Per bank write bursts
system.mem_ctrls.perBankRdBursts::9               138                       # Per bank write bursts
system.mem_ctrls.perBankRdBursts::10              128                       # Per bank write bursts
system.mem_ctrls.perBankRdBursts::11              142                       # Per bank write bursts
system.mem_ctrls.perBankRdBursts::12              134                       # Per bank write bursts
system.mem_ctrls.perBankRdBursts::13              161                       # Per bank write bursts
system.mem_ctrls.perBankRdBursts::14              166                       # Per bank write bursts
system.mem_ctrls.perBankRdBursts::15               86                       # Per bank write bursts
system.mem_ctrls.perBankWrBursts::0                 0                       # Per bank write bursts
system.mem_ctrls.perBankWrBursts::1                 0                       # Per bank write bursts
system.mem_ctrls.perBankWrBursts::2                 0                       # Per bank write bursts
system.mem_ctrls.perBankWrBursts::3                 0                       # Per bank write bursts
system.mem_ctrls.perBankWrBursts::4                 0                       # Per bank write bursts
system.mem_ctrls.perBankWrBursts::5                 0                       # Per bank write bursts
system.mem_ctrls.perBankWrBursts::6                 0                       # Per bank write bursts
system.mem_ctrls.perBankWrBursts::7                 0                       # Per bank write bursts
system.mem_ctrls.perBankWrBursts::8                 0                       # Per bank write bursts
system.mem_ctrls.perBankWrBursts::9                 0                       # Per bank write bursts
system.mem_ctrls.perBankWrBursts::10                0                       # Per bank write bursts
system.mem_ctrls.perBankWrBursts::11                0                       # Per bank write bursts
system.mem_ctrls.perBankWrBursts::12                0                       # Per bank write bursts
system.mem_ctrls.perBankWrBursts::13                0                       # Per bank write bursts
system.mem_ctrls.perBankWrBursts::14                0                       # Per bank write bursts
system.mem_ctrls.perBankWrBursts::15                0                       # Per bank write bursts
system.mem_ctrls.numRdRetry                         0                       # Number of times read queue was full causing retry
system.mem_ctrls.numWrRetry                         0                       # Number of times write queue was full causing retry
system.mem_ctrls.totGap                     260104500                       # Total gap between requests
system.mem_ctrls.readPktSize::0                     0                       # Read request sizes (log2)
system.mem_ctrls.readPktSize::1                     0                       # Read request sizes (log2)
system.mem_ctrls.readPktSize::2                     0                       # Read request sizes (log2)
system.mem_ctrls.readPktSize::3                     0                       # Read request sizes (log2)
system.mem_ctrls.readPktSize::4                     0                       # Read request sizes (log2)
system.mem_ctrls.readPktSize::5                     0                       # Read request sizes (log2)
system.mem_ctrls.readPktSize::6                  2393                       # Read request sizes (log2)
system.mem_ctrls.writePktSize::0                    0                       # Write request sizes (log2)
system.mem_ctrls.writePktSize::1                    0                       # Write request sizes (log2)
system.mem_ctrls.writePktSize::2                    0                       # Write request sizes (log2)
system.mem_ctrls.writePktSize::3                    0                       # Write request sizes (log2)
system.mem_ctrls.writePktSize::4                    0                       # Write request sizes (log2)
system.mem_ctrls.writePktSize::5                    0                       # Write request sizes (log2)
system.mem_ctrls.writePktSize::6                    0                       # Write request sizes (log2)
system.mem_ctrls.rdQLenPdf::0                    1388                       # What read queue length does an incoming req see
system.mem_ctrls.rdQLenPdf::1                     883                       # What read queue length does an incoming req see
system.mem_ctrls.rdQLenPdf::2                      88                       # What read queue length does an incoming req see
system.mem_ctrls.rdQLenPdf::3                      24                       # What read queue length does an incoming req see
system.mem_ctrls.rdQLenPdf::4                       7                       # What read queue length does an incoming req see
system.mem_ctrls.rdQLenPdf::5                       3                       # What read queue length does an incoming req see
system.mem_ctrls.rdQLenPdf::6                       0                       # What read queue length does an incoming req see
system.mem_ctrls.rdQLenPdf::7                       0                       # What read queue length does an incoming req see
system.mem_ctrls.rdQLenPdf::8                       0                       # What read queue length does an incoming req see
system.mem_ctrls.rdQLenPdf::9                       0                       # What read queue length does an incoming req see
system.mem_ctrls.rdQLenPdf::10                      0                       # What read queue length does an incoming req see
system.mem_ctrls.rdQLenPdf::11                      0                       # What read queue length does an incoming req see
system.mem_ctrls.rdQLenPdf::12                      0                       # What read queue length does an incoming req see
system.mem_ctrls.rdQLenPdf::13                      0                       # What read queue length does an incoming req see
system.mem_ctrls.rdQLenPdf::14                      0                       # What read queue length does an incoming req see
system.mem_ctrls.rdQLenPdf::15                      0                       # What read queue length does an incoming req see
system.mem_ctrls.rdQLenPdf::16                      0                       # What read queue length does an incoming req see
system.mem_ctrls.rdQLenPdf::17                      0                       # What read queue length does an incoming req see
system.mem_ctrls.rdQLenPdf::18                      0                       # What read queue length does an incoming req see
system.mem_ctrls.rdQLenPdf::19                      0                       # What read queue length does an incoming req see
system.mem_ctrls.rdQLenPdf::20                      0                       # What read queue length does an incoming req see
system.mem_ctrls.rdQLenPdf::21                      0                       # What read queue length does an incoming req see
system.mem_ctrls.rdQLenPdf::22                      0                       # What read queue length does an incoming req see
system.mem_ctrls.rdQLenPdf::23                      0                       # What read queue length does an incoming req see
system.mem_ctrls.rdQLenPdf::24                      0                       # What read queue length does an incoming req see
system.mem_ctrls.rdQLenPdf::25                      0                       # What read queue length does an incoming req see
system.mem_ctrls.rdQLenPdf::26                      0                       # What read queue length does an incoming req see
system.mem_ctrls.rdQLenPdf::27                      0                       # What read queue length does an incoming req see
system.mem_ctrls.rdQLenPdf::28                      0                       # What read queue length does an incoming req see
system.mem_ctrls.rdQLenPdf::29                      0                       # What read queue length does an incoming req see
system.mem_ctrls.rdQLenPdf::30                      0                       # What read queue length does an incoming req see
system.mem_ctrls.rdQLenPdf::31                      0                       # What read queue length does an incoming req see
system.mem_ctrls.wrQLenPdf::0                       0                       # What write queue length does an incoming req see
system.mem_ctrls.wrQLenPdf::1                       0                       # What write queue length does an incoming req see
system.mem_ctrls.wrQLenPdf::2                       0                       # What write queue length does an incoming req see
system.mem_ctrls.wrQLenPdf::3                       0                       # What write queue length does an incoming req see
system.mem_ctrls.wrQLenPdf::4                       0                       # What write queue length does an incoming req see
system.mem_ctrls.wrQLenPdf::5                       0                       # What write queue length does an incoming req see
system.mem_ctrls.wrQLenPdf::6                       0                       # What write queue length does an incoming req see
system.mem_ctrls.wrQLenPdf::7                       0                       # What write queue length does an incoming req see
system.mem_ctrls.wrQLenPdf::8                       0                       # What write queue length does an incoming req see
system.mem_ctrls.wrQLenPdf::9                       0                       # What write queue length does an incoming req see
system.mem_ctrls.wrQLenPdf::10                      0                       # What write queue length does an incoming req see
system.mem_ctrls.wrQLenPdf::11                      0                       # What write queue length does an incoming req see
system.mem_ctrls.wrQLenPdf::12                      0                       # What write queue length does an incoming req see
system.mem_ctrls.wrQLenPdf::13                      0                       # What write queue length does an incoming req see
system.mem_ctrls.wrQLenPdf::14                      0                       # What write queue length does an incoming req see
system.mem_ctrls.wrQLenPdf::15                      0                       # What write queue length does an incoming req see
system.mem_ctrls.wrQLenPdf::16                      0                       # What write queue length does an incoming req see
system.mem_ctrls.wrQLenPdf::17                      0                       # What write queue length does an incoming req see
system.mem_ctrls.wrQLenPdf::18                      0                       # What write queue length does an incoming req see
system.mem_ctrls.wrQLenPdf::19                      0                       # What write queue length does an incoming req see
system.mem_ctrls.wrQLenPdf::20                      0                       # What write queue length does an incoming req see
system.mem_ctrls.wrQLenPdf::21                      0                       # What write queue length does an incoming req see
system.mem_ctrls.wrQLenPdf::22                      0                       # What write queue length does an incoming req see
system.mem_ctrls.wrQLenPdf::23                      0                       # What write queue length does an incoming req see
system.mem_ctrls.wrQLenPdf::24                      0                       # What write queue length does an incoming req see
system.mem_ctrls.wrQLenPdf::25                      0                       # What write queue length does an incoming req see
system.mem_ctrls.wrQLenPdf::26                      0                       # What write queue length does an incoming req see
system.mem_ctrls.wrQLenPdf::27                      0                       # What write queue length does an incoming req see
system.mem_ctrls.wrQLenPdf::28                      0                       # What write queue length does an incoming req see
system.mem_ctrls.wrQLenPdf::29                      0                       # What write queue length does an incoming req see
system.mem_ctrls.wrQLenPdf::30                      0                       # What write queue length does an incoming req see
system.mem_ctrls.wrQLenPdf::31                      0                       # What write queue length does an incoming req see
system.mem_ctrls.wrQLenPdf::32                      0                       # What write queue length does an incoming req see
system.mem_ctrls.wrQLenPdf::33                      0                       # What write queue length does an incoming req see
system.mem_ctrls.wrQLenPdf::34                      0                       # What write queue length does an incoming req see
system.mem_ctrls.wrQLenPdf::35                      0                       # What write queue length does an incoming req see
system.mem_ctrls.wrQLenPdf::36                      0                       # What write queue length does an incoming req see
system.mem_ctrls.wrQLenPdf::37                      0                       # What write queue length does an incoming req see
system.mem_ctrls.wrQLenPdf::38                      0                       # What write queue length does an incoming req see
system.mem_ctrls.wrQLenPdf::39                      0                       # What write queue length does an incoming req see
system.mem_ctrls.wrQLenPdf::40                      0                       # What write queue length does an incoming req see
system.mem_ctrls.wrQLenPdf::41                      0                       # What write queue length does an incoming req see
system.mem_ctrls.wrQLenPdf::42                      0                       # What write queue length does an incoming req see
system.mem_ctrls.wrQLenPdf::43                      0                       # What write queue length does an incoming req see
system.mem_ctrls.wrQLenPdf::44                      0                       # What write queue length does an incoming req see
system.mem_ctrls.wrQLenPdf::45                      0                       # What write queue length does an incoming req see
system.mem_ctrls.wrQLenPdf::46                      0                       # What write queue length does an incoming req see
system.mem_ctrls.wrQLenPdf::47                      0                       # What write queue length does an incoming req see
system.mem_ctrls.wrQLenPdf::48                      0                       # What write queue length does an incoming req see
system.mem_ctrls.wrQLenPdf::49                      0                       # What write queue length does an incoming req see
system.mem_ctrls.wrQLenPdf::50                      0                       # What write queue length does an incoming req see
system.mem_ctrls.wrQLenPdf::51                      0                       # What write queue length does an incoming req see
system.mem_ctrls.wrQLenPdf::52                      0                       # What write queue length does an incoming req see
system.mem_ctrls.wrQLenPdf::53                      0                       # What write queue length does an incoming req see
system.mem_ctrls.wrQLenPdf::54                      0                       # What write queue length does an incoming req see
system.mem_ctrls.wrQLenPdf::55                      0                       # What write queue length does an incoming req see
system.mem_ctrls.wrQLenPdf::56                      0                       # What write queue length does an incoming req see
system.mem_ctrls.wrQLenPdf::57                      0                       # What write queue length does an incoming req see
system.mem_ctrls.wrQLenPdf::58                      0                       # What write queue length does an incoming req see
system.mem_ctrls.wrQLenPdf::59                      0                       # What write queue length does an incoming req see
system.mem_ctrls.wrQLenPdf::60                      0                       # What write queue length does an incoming req see
system.mem_ctrls.wrQLenPdf::61                      0                       # What write queue length does an incoming req see
system.mem_ctrls.wrQLenPdf::62                      0                       # What write queue length does an incoming req see
system.mem_ctrls.wrQLenPdf::63                      0                       # What write queue length does an incoming req see
system.mem_ctrls.bytesPerActivate::samples          293                       # Bytes accessed per row activation
system.mem_ctrls.bytesPerActivate::mean    517.460751                       # Bytes accessed per row activation
system.mem_ctrls.bytesPerActivate::gmean   309.108197                       # Bytes accessed per row activation
system.mem_ctrls.bytesPerActivate::stdev   420.425220                       # Bytes accessed per row activation
system.mem_ctrls.bytesPerActivate::0-127           69     23.55%     23.55% # Bytes accessed per row activation
system.mem_ctrls.bytesPerActivate::128-255           52     17.75%     41.30% # Bytes accessed per row activation
system.mem_ctrls.bytesPerActivate::256-383           29      9.90%     51.19% # Bytes accessed per row activation
system.mem_ctrls.bytesPerActivate::384-511           10      3.41%     54.61% # Bytes accessed per row activation
system.mem_ctrls.bytesPerActivate::512-639            7      2.39%     57.00% # Bytes accessed per row activation
system.mem_ctrls.bytesPerActivate::640-767           11      3.75%     60.75% # Bytes accessed per row activation
system.mem_ctrls.bytesPerActivate::768-895            3      1.02%     61.77% # Bytes accessed per row activation
system.mem_ctrls.bytesPerActivate::896-1023            8      2.73%     64.51% # Bytes accessed per row activation
system.mem_ctrls.bytesPerActivate::1024-1151          104     35.49%    100.00% # Bytes accessed per row activation
system.mem_ctrls.bytesPerActivate::total          293                       # Bytes accessed per row activation
system.mem_ctrls.totQLat                     15329000                       # Total ticks spent queuing
system.mem_ctrls.totMemAccLat                60197750                       # Total ticks spent from burst creation until serviced by the DRAM
system.mem_ctrls.totBusLat                   11965000                       # Total ticks spent in databus transfers
system.mem_ctrls.avgQLat                      6405.77                       # Average queueing delay per DRAM burst
system.mem_ctrls.avgBusLat                    5000.00                       # Average bus latency per DRAM burst
system.mem_ctrls.avgMemAccLat                25155.77                       # Average memory access latency per DRAM burst
system.mem_ctrls.avgRdBW                       588.72                       # Average DRAM read bandwidth in MiByte/s
system.mem_ctrls.avgWrBW                         0.00                       # Average achieved write bandwidth in MiByte/s
system.mem_ctrls.avgRdBWSys                    588.72                       # Average system read bandwidth in MiByte/s
system.mem_ctrls.avgWrBWSys                      0.00                       # Average system write bandwidth in MiByte/s
system.mem_ctrls.peakBW                      12800.00                       # Theoretical peak bandwidth in MiByte/s
system.mem_ctrls.busUtil                         4.60                       # Data bus utilization in percentage
system.mem_ctrls.busUtilRead                     4.60                       # Data bus utilization in percentage for reads
system.mem_ctrls.busUtilWrite                    0.00                       # Data bus utilization in percentage for writes
system.mem_ctrls.avgRdQLen                       1.31                       # Average read queue length when enqueuing
system.mem_ctrls.avgWrQLen                       0.00                       # Average write queue length when enqueuing
system.mem_ctrls.readRowHits                     2090                       # Number of row buffer hits during reads
system.mem_ctrls.writeRowHits                       0                       # Number of row buffer hits during writes
system.mem_ctrls.readRowHitRate                 87.34                       # Row buffer hit rate for reads
system.mem_ctrls.writeRowHitRate                  nan                       # Row buffer hit rate for writes
system.mem_ctrls.avgGap                     108693.90                       # Average gap between requests
system.mem_ctrls.pageHitRate                    87.34                       # Row buffer hit rate, read and write combined
system.mem_ctrls_0.actEnergy                  1466640                       # Energy for activate commands per rank (pJ)
system.mem_ctrls_0.preEnergy                   800250                       # Energy for precharge commands per rank (pJ)
system.mem_ctrls_0.readEnergy                 9991800                       # Energy for read commands per rank (pJ)
system.mem_ctrls_0.writeEnergy                      0                       # Energy for write commands per rank (pJ)
system.mem_ctrls_0.refreshEnergy             16782480                       # Energy for refresh commands per rank (pJ)
system.mem_ctrls_0.actBackEnergy             61890885                       # Energy for active background per rank (pJ)
system.mem_ctrls_0.preBackEnergy            100033500                       # Energy for precharge background per rank (pJ)
system.mem_ctrls_0.totalEnergy              190965555                       # Total energy per rank (pJ)
system.mem_ctrls_0.averagePower            742.460788                       # Core power per rank (mW)
system.mem_ctrls_0.memoryStateTime::IDLE    165949000                       # Time in different power states
system.mem_ctrls_0.memoryStateTime::REF       8580000                       # Time in different power states
system.mem_ctrls_0.memoryStateTime::PRE_PDN            0                       # Time in different power states
system.mem_ctrls_0.memoryStateTime::ACT      82691000                       # Time in different power states
system.mem_ctrls_0.memoryStateTime::ACT_PDN            0                       # Time in different power states
system.mem_ctrls_1.actEnergy                   695520                       # Energy for activate commands per rank (pJ)
system.mem_ctrls_1.preEnergy                   379500                       # Energy for precharge commands per rank (pJ)
system.mem_ctrls_1.readEnergy                 8275800                       # Energy for read commands per rank (pJ)
system.mem_ctrls_1.writeEnergy                      0                       # Energy for write commands per rank (pJ)
system.mem_ctrls_1.refreshEnergy             16782480                       # Energy for refresh commands per rank (pJ)
system.mem_ctrls_1.actBackEnergy             61146180                       # Energy for active background per rank (pJ)
system.mem_ctrls_1.preBackEnergy            100678500                       # Energy for precharge background per rank (pJ)
system.mem_ctrls_1.totalEnergy              187957980                       # Total energy per rank (pJ)
system.mem_ctrls_1.averagePower            730.806614                       # Core power per rank (mW)
system.mem_ctrls_1.memoryStateTime::IDLE    167781000                       # Time in different power states
system.mem_ctrls_1.memoryStateTime::REF       8580000                       # Time in different power states
system.mem_ctrls_1.memoryStateTime::PRE_PDN            0                       # Time in different power states
system.mem_ctrls_1.memoryStateTime::ACT      81685500                       # Time in different power states
system.mem_ctrls_1.memoryStateTime::ACT_PDN            0                       # Time in different power states
system.cpu0.branchPred.lookups                  89690                       # Number of BP lookups
system.cpu0.branchPred.condPredicted            87026                       # Number of conditional branches predicted
system.cpu0.branchPred.condIncorrect             2233                       # Number of conditional branches incorrect
system.cpu0.branchPred.BTBLookups               87246                       # Number of BTB lookups
system.cpu0.branchPred.BTBHits                  83554                       # Number of BTB hits
system.cpu0.branchPred.BTBCorrect                   0                       # Number of correct BTB predictions (this stat may not work properly.
system.cpu0.branchPred.BTBHitPct            95.768287                       # BTB Hit Percentage
system.cpu0.branchPred.usedRAS                    986                       # Number of times the RAS was used to get a target.
system.cpu0.branchPred.RASInCorrect                16                       # Number of incorrect RAS predictions.
system.cpu_voltage_domain.voltage                   1                       # Voltage in Volts
system.cpu_clk_domain.clock                       500                       # Clock period in ticks
system.cpu0.dstage2_mmu.stage2_tlb.walker.walks            0                       # Table walker walks requested
system.cpu0.dstage2_mmu.stage2_tlb.walker.walkRequestOrigin_Requested::Data            0                       # Table walker requests started/completed, data/inst
system.cpu0.dstage2_mmu.stage2_tlb.walker.walkRequestOrigin_Requested::Inst            0                       # Table walker requests started/completed, data/inst
system.cpu0.dstage2_mmu.stage2_tlb.walker.walkRequestOrigin_Requested::total            0                       # Table walker requests started/completed, data/inst
system.cpu0.dstage2_mmu.stage2_tlb.walker.walkRequestOrigin_Completed::Data            0                       # Table walker requests started/completed, data/inst
system.cpu0.dstage2_mmu.stage2_tlb.walker.walkRequestOrigin_Completed::Inst            0                       # Table walker requests started/completed, data/inst
system.cpu0.dstage2_mmu.stage2_tlb.walker.walkRequestOrigin_Completed::total            0                       # Table walker requests started/completed, data/inst
system.cpu0.dstage2_mmu.stage2_tlb.walker.walkRequestOrigin::total            0                       # Table walker requests started/completed, data/inst
system.cpu0.dstage2_mmu.stage2_tlb.inst_hits            0                       # ITB inst hits
system.cpu0.dstage2_mmu.stage2_tlb.inst_misses            0                       # ITB inst misses
system.cpu0.dstage2_mmu.stage2_tlb.read_hits            0                       # DTB read hits
system.cpu0.dstage2_mmu.stage2_tlb.read_misses            0                       # DTB read misses
system.cpu0.dstage2_mmu.stage2_tlb.write_hits            0                       # DTB write hits
system.cpu0.dstage2_mmu.stage2_tlb.write_misses            0                       # DTB write misses
system.cpu0.dstage2_mmu.stage2_tlb.flush_tlb            0                       # Number of times complete TLB was flushed
system.cpu0.dstage2_mmu.stage2_tlb.flush_tlb_mva            0                       # Number of times TLB was flushed by MVA
system.cpu0.dstage2_mmu.stage2_tlb.flush_tlb_mva_asid            0                       # Number of times TLB was flushed by MVA & ASID
system.cpu0.dstage2_mmu.stage2_tlb.flush_tlb_asid            0                       # Number of times TLB was flushed by ASID
system.cpu0.dstage2_mmu.stage2_tlb.flush_entries            0                       # Number of entries that have been flushed from TLB
system.cpu0.dstage2_mmu.stage2_tlb.align_faults            0                       # Number of TLB faults due to alignment restrictions
system.cpu0.dstage2_mmu.stage2_tlb.prefetch_faults            0                       # Number of TLB faults due to prefetch
system.cpu0.dstage2_mmu.stage2_tlb.domain_faults            0                       # Number of TLB faults due to domain restrictions
system.cpu0.dstage2_mmu.stage2_tlb.perms_faults            0                       # Number of TLB faults due to permissions restrictions
system.cpu0.dstage2_mmu.stage2_tlb.read_accesses            0                       # DTB read accesses
system.cpu0.dstage2_mmu.stage2_tlb.write_accesses            0                       # DTB write accesses
system.cpu0.dstage2_mmu.stage2_tlb.inst_accesses            0                       # ITB inst accesses
system.cpu0.dstage2_mmu.stage2_tlb.hits             0                       # DTB hits
system.cpu0.dstage2_mmu.stage2_tlb.misses            0                       # DTB misses
system.cpu0.dstage2_mmu.stage2_tlb.accesses            0                       # DTB accesses
system.cpu0.dtb.walker.walks                        0                       # Table walker walks requested
system.cpu0.dtb.walker.walkRequestOrigin_Requested::Data            0                       # Table walker requests started/completed, data/inst
system.cpu0.dtb.walker.walkRequestOrigin_Requested::Inst            0                       # Table walker requests started/completed, data/inst
system.cpu0.dtb.walker.walkRequestOrigin_Requested::total            0                       # Table walker requests started/completed, data/inst
system.cpu0.dtb.walker.walkRequestOrigin_Completed::Data            0                       # Table walker requests started/completed, data/inst
system.cpu0.dtb.walker.walkRequestOrigin_Completed::Inst            0                       # Table walker requests started/completed, data/inst
system.cpu0.dtb.walker.walkRequestOrigin_Completed::total            0                       # Table walker requests started/completed, data/inst
system.cpu0.dtb.walker.walkRequestOrigin::total            0                       # Table walker requests started/completed, data/inst
system.cpu0.dtb.inst_hits                           0                       # ITB inst hits
system.cpu0.dtb.inst_misses                         0                       # ITB inst misses
system.cpu0.dtb.read_hits                           0                       # DTB read hits
system.cpu0.dtb.read_misses                         0                       # DTB read misses
system.cpu0.dtb.write_hits                          0                       # DTB write hits
system.cpu0.dtb.write_misses                        0                       # DTB write misses
system.cpu0.dtb.flush_tlb                           0                       # Number of times complete TLB was flushed
system.cpu0.dtb.flush_tlb_mva                       0                       # Number of times TLB was flushed by MVA
system.cpu0.dtb.flush_tlb_mva_asid                  0                       # Number of times TLB was flushed by MVA & ASID
system.cpu0.dtb.flush_tlb_asid                      0                       # Number of times TLB was flushed by ASID
system.cpu0.dtb.flush_entries                       0                       # Number of entries that have been flushed from TLB
system.cpu0.dtb.align_faults                        0                       # Number of TLB faults due to alignment restrictions
system.cpu0.dtb.prefetch_faults                     0                       # Number of TLB faults due to prefetch
system.cpu0.dtb.domain_faults                       0                       # Number of TLB faults due to domain restrictions
system.cpu0.dtb.perms_faults                        0                       # Number of TLB faults due to permissions restrictions
system.cpu0.dtb.read_accesses                       0                       # DTB read accesses
system.cpu0.dtb.write_accesses                      0                       # DTB write accesses
system.cpu0.dtb.inst_accesses                       0                       # ITB inst accesses
system.cpu0.dtb.hits                                0                       # DTB hits
system.cpu0.dtb.misses                              0                       # DTB misses
system.cpu0.dtb.accesses                            0                       # DTB accesses
system.cpu0.istage2_mmu.stage2_tlb.walker.walks            0                       # Table walker walks requested
system.cpu0.istage2_mmu.stage2_tlb.walker.walkRequestOrigin_Requested::Data            0                       # Table walker requests started/completed, data/inst
system.cpu0.istage2_mmu.stage2_tlb.walker.walkRequestOrigin_Requested::Inst            0                       # Table walker requests started/completed, data/inst
system.cpu0.istage2_mmu.stage2_tlb.walker.walkRequestOrigin_Requested::total            0                       # Table walker requests started/completed, data/inst
system.cpu0.istage2_mmu.stage2_tlb.walker.walkRequestOrigin_Completed::Data            0                       # Table walker requests started/completed, data/inst
system.cpu0.istage2_mmu.stage2_tlb.walker.walkRequestOrigin_Completed::Inst            0                       # Table walker requests started/completed, data/inst
system.cpu0.istage2_mmu.stage2_tlb.walker.walkRequestOrigin_Completed::total            0                       # Table walker requests started/completed, data/inst
system.cpu0.istage2_mmu.stage2_tlb.walker.walkRequestOrigin::total            0                       # Table walker requests started/completed, data/inst
system.cpu0.istage2_mmu.stage2_tlb.inst_hits            0                       # ITB inst hits
system.cpu0.istage2_mmu.stage2_tlb.inst_misses            0                       # ITB inst misses
system.cpu0.istage2_mmu.stage2_tlb.read_hits            0                       # DTB read hits
system.cpu0.istage2_mmu.stage2_tlb.read_misses            0                       # DTB read misses
system.cpu0.istage2_mmu.stage2_tlb.write_hits            0                       # DTB write hits
system.cpu0.istage2_mmu.stage2_tlb.write_misses            0                       # DTB write misses
system.cpu0.istage2_mmu.stage2_tlb.flush_tlb            0                       # Number of times complete TLB was flushed
system.cpu0.istage2_mmu.stage2_tlb.flush_tlb_mva            0                       # Number of times TLB was flushed by MVA
system.cpu0.istage2_mmu.stage2_tlb.flush_tlb_mva_asid            0                       # Number of times TLB was flushed by MVA & ASID
system.cpu0.istage2_mmu.stage2_tlb.flush_tlb_asid            0                       # Number of times TLB was flushed by ASID
system.cpu0.istage2_mmu.stage2_tlb.flush_entries            0                       # Number of entries that have been flushed from TLB
system.cpu0.istage2_mmu.stage2_tlb.align_faults            0                       # Number of TLB faults due to alignment restrictions
system.cpu0.istage2_mmu.stage2_tlb.prefetch_faults            0                       # Number of TLB faults due to prefetch
system.cpu0.istage2_mmu.stage2_tlb.domain_faults            0                       # Number of TLB faults due to domain restrictions
system.cpu0.istage2_mmu.stage2_tlb.perms_faults            0                       # Number of TLB faults due to permissions restrictions
system.cpu0.istage2_mmu.stage2_tlb.read_accesses            0                       # DTB read accesses
system.cpu0.istage2_mmu.stage2_tlb.write_accesses            0                       # DTB write accesses
system.cpu0.istage2_mmu.stage2_tlb.inst_accesses            0                       # ITB inst accesses
system.cpu0.istage2_mmu.stage2_tlb.hits             0                       # DTB hits
system.cpu0.istage2_mmu.stage2_tlb.misses            0                       # DTB misses
system.cpu0.istage2_mmu.stage2_tlb.accesses            0                       # DTB accesses
system.cpu0.itb.walker.walks                        0                       # Table walker walks requested
system.cpu0.itb.walker.walkRequestOrigin_Requested::Data            0                       # Table walker requests started/completed, data/inst
system.cpu0.itb.walker.walkRequestOrigin_Requested::Inst            0                       # Table walker requests started/completed, data/inst
system.cpu0.itb.walker.walkRequestOrigin_Requested::total            0                       # Table walker requests started/completed, data/inst
system.cpu0.itb.walker.walkRequestOrigin_Completed::Data            0                       # Table walker requests started/completed, data/inst
system.cpu0.itb.walker.walkRequestOrigin_Completed::Inst            0                       # Table walker requests started/completed, data/inst
system.cpu0.itb.walker.walkRequestOrigin_Completed::total            0                       # Table walker requests started/completed, data/inst
system.cpu0.itb.walker.walkRequestOrigin::total            0                       # Table walker requests started/completed, data/inst
system.cpu0.itb.inst_hits                           0                       # ITB inst hits
system.cpu0.itb.inst_misses                         0                       # ITB inst misses
system.cpu0.itb.read_hits                           0                       # DTB read hits
system.cpu0.itb.read_misses                         0                       # DTB read misses
system.cpu0.itb.write_hits                          0                       # DTB write hits
system.cpu0.itb.write_misses                        0                       # DTB write misses
system.cpu0.itb.flush_tlb                           0                       # Number of times complete TLB was flushed
system.cpu0.itb.flush_tlb_mva                       0                       # Number of times TLB was flushed by MVA
system.cpu0.itb.flush_tlb_mva_asid                  0                       # Number of times TLB was flushed by MVA & ASID
system.cpu0.itb.flush_tlb_asid                      0                       # Number of times TLB was flushed by ASID
system.cpu0.itb.flush_entries                       0                       # Number of entries that have been flushed from TLB
system.cpu0.itb.align_faults                        0                       # Number of TLB faults due to alignment restrictions
system.cpu0.itb.prefetch_faults                     0                       # Number of TLB faults due to prefetch
system.cpu0.itb.domain_faults                       0                       # Number of TLB faults due to domain restrictions
system.cpu0.itb.perms_faults                        0                       # Number of TLB faults due to permissions restrictions
system.cpu0.itb.read_accesses                       0                       # DTB read accesses
system.cpu0.itb.write_accesses                      0                       # DTB write accesses
system.cpu0.itb.inst_accesses                       0                       # ITB inst accesses
system.cpu0.itb.hits                                0                       # DTB hits
system.cpu0.itb.misses                              0                       # DTB misses
system.cpu0.itb.accesses                            0                       # DTB accesses
system.cpu0.workload.num_syscalls                  34                       # Number of system calls
system.cpu0.numCycles                          520290                       # number of cpu cycles simulated
system.cpu0.numWorkItemsStarted                     0                       # number of work items this cpu started
system.cpu0.numWorkItemsCompleted                   0                       # number of work items this cpu completed
system.cpu0.fetch.icacheStallCycles            167094                       # Number of cycles fetch is stalled on an Icache miss
system.cpu0.fetch.Insts                       1193731                       # Number of instructions fetch has processed
system.cpu0.fetch.Branches                      89690                       # Number of branches that fetch encountered
system.cpu0.fetch.predictedBranches             84540                       # Number of branches that fetch has predicted taken
system.cpu0.fetch.Cycles                       305749                       # Number of cycles fetch has run and was not squashing or blocked
system.cpu0.fetch.SquashCycles                   4599                       # Number of cycles fetch has spent squashing
system.cpu0.fetch.MiscStallCycles                   1                       # Number of cycles fetch has spent waiting on interrupts, or bad addresses, or out of MSHRs
system.cpu0.fetch.PendingTrapStallCycles            4                       # Number of stall cycles due to pending traps
system.cpu0.fetch.CacheLines                   152614                       # Number of cache lines fetched
system.cpu0.fetch.IcacheSquashes                 1114                       # Number of outstanding Icache misses that were squashed
system.cpu0.fetch.rateDist::samples            475147                       # Number of instructions fetched each cycle (Total)
system.cpu0.fetch.rateDist::mean             2.582775                       # Number of instructions fetched each cycle (Total)
system.cpu0.fetch.rateDist::stdev            3.503684                       # Number of instructions fetched each cycle (Total)
system.cpu0.fetch.rateDist::underflows              0      0.00%      0.00% # Number of instructions fetched each cycle (Total)
system.cpu0.fetch.rateDist::0                  298468     62.82%     62.82% # Number of instructions fetched each cycle (Total)
system.cpu0.fetch.rateDist::1                    3858      0.81%     63.63% # Number of instructions fetched each cycle (Total)
system.cpu0.fetch.rateDist::2                    6142      1.29%     64.92% # Number of instructions fetched each cycle (Total)
system.cpu0.fetch.rateDist::3                    1410      0.30%     65.22% # Number of instructions fetched each cycle (Total)
system.cpu0.fetch.rateDist::4                    7909      1.66%     66.88% # Number of instructions fetched each cycle (Total)
system.cpu0.fetch.rateDist::5                    1382      0.29%     67.17% # Number of instructions fetched each cycle (Total)
system.cpu0.fetch.rateDist::6                    5367      1.13%     68.30% # Number of instructions fetched each cycle (Total)
system.cpu0.fetch.rateDist::7                   68810     14.48%     82.78% # Number of instructions fetched each cycle (Total)
system.cpu0.fetch.rateDist::8                   81801     17.22%    100.00% # Number of instructions fetched each cycle (Total)
system.cpu0.fetch.rateDist::overflows               0      0.00%    100.00% # Number of instructions fetched each cycle (Total)
system.cpu0.fetch.rateDist::min_value               0                       # Number of instructions fetched each cycle (Total)
system.cpu0.fetch.rateDist::max_value               8                       # Number of instructions fetched each cycle (Total)
system.cpu0.fetch.rateDist::total              475147                       # Number of instructions fetched each cycle (Total)
system.cpu0.fetch.branchRate                 0.172385                       # Number of branch fetches per cycle
system.cpu0.fetch.rate                       2.294357                       # Number of inst fetches per cycle
system.cpu0.decode.IdleCycles                  147643                       # Number of cycles decode is idle
system.cpu0.decode.BlockedCycles               158696                       # Number of cycles decode is blocked
system.cpu0.decode.RunCycles                   154817                       # Number of cycles decode is running
system.cpu0.decode.UnblockCycles                12038                       # Number of cycles decode is unblocking
system.cpu0.decode.SquashCycles                  1953                       # Number of cycles decode is squashing
system.cpu0.decode.BranchResolved                1221                       # Number of times decode resolved a branch
system.cpu0.decode.BranchMispred                  356                       # Number of times decode detected a branch misprediction
system.cpu0.decode.DecodedInsts               1214538                       # Number of instructions handled by decode
system.cpu0.decode.SquashedInsts                 1350                       # Number of squashed instructions handled by decode
system.cpu0.rename.SquashCycles                  1953                       # Number of cycles rename is squashing
system.cpu0.rename.IdleCycles                  153314                       # Number of cycles rename is idle
system.cpu0.rename.BlockCycles                   6258                       # Number of cycles rename is blocking
system.cpu0.rename.serializeStallCycles          8581                       # count of cycles rename stalled for serializing inst
system.cpu0.rename.RunCycles                   160983                       # Number of cycles rename is running
system.cpu0.rename.UnblockCycles               144058                       # Number of cycles rename is unblocking
system.cpu0.rename.RenamedInsts               1207819                       # Number of instructions processed by rename
system.cpu0.rename.ROBFullEvents                    9                       # Number of times rename has blocked due to ROB full
system.cpu0.rename.IQFullEvents                  4575                       # Number of times rename has blocked due to IQ full
system.cpu0.rename.LQFullEvents                 13702                       # Number of times rename has blocked due to LQ full
system.cpu0.rename.SQFullEvents                122219                       # Number of times rename has blocked due to SQ full
system.cpu0.rename.RenamedOperands            1548536                       # Number of destination operands rename has renamed
system.cpu0.rename.RenameLookups              5979129                       # Number of register rename lookups that rename has made
system.cpu0.rename.int_rename_lookups         1989621                       # Number of integer rename lookups
system.cpu0.rename.fp_rename_lookups               22                       # Number of floating rename lookups
system.cpu0.rename.CommittedMaps              1481223                       # Number of HB maps that are committed
system.cpu0.rename.UndoneMaps                   67313                       # Number of HB maps that are undone due to squashing
system.cpu0.rename.serializingInsts               132                       # count of serializing insts renamed
system.cpu0.rename.tempSerializingInsts           133                       # count of temporary serializing insts renamed
system.cpu0.rename.skidInsts                    70027                       # count of insts added to the skid buffer
system.cpu0.memDep0.insertedLoads              280496                       # Number of loads inserted to the mem dependence unit.
system.cpu0.memDep0.insertedStores              49901                       # Number of stores inserted to the mem dependence unit.
system.cpu0.memDep0.conflictingLoads             2639                       # Number of conflicting loads.
system.cpu0.memDep0.conflictingStores             549                       # Number of conflicting stores.
system.cpu0.iq.iqInstsAdded                   1195754                       # Number of instructions added to the IQ (excludes non-spec)
system.cpu0.iq.iqNonSpecInstsAdded                272                       # Number of non-speculative instructions added to the IQ
system.cpu0.iq.iqInstsIssued                  1169135                       # Number of instructions issued
system.cpu0.iq.iqSquashedInstsIssued             1803                       # Number of squashed instructions issued
system.cpu0.iq.iqSquashedInstsExamined          43189                       # Number of squashed instructions iterated over during squash; mainly for profiling
system.cpu0.iq.iqSquashedOperandsExamined       156202                       # Number of squashed operands that are examined and possibly removed from graph
system.cpu0.iq.iqSquashedNonSpecRemoved            83                       # Number of squashed non-spec instructions that were removed
system.cpu0.iq.issued_per_cycle::samples       475147                       # Number of insts issued each cycle
system.cpu0.iq.issued_per_cycle::mean        2.460575                       # Number of insts issued each cycle
system.cpu0.iq.issued_per_cycle::stdev       1.803506                       # Number of insts issued each cycle
system.cpu0.iq.issued_per_cycle::underflows            0      0.00%      0.00% # Number of insts issued each cycle
system.cpu0.iq.issued_per_cycle::0             145235     30.57%     30.57% # Number of insts issued each cycle
system.cpu0.iq.issued_per_cycle::1              27215      5.73%     36.29% # Number of insts issued each cycle
system.cpu0.iq.issued_per_cycle::2              16965      3.57%     39.86% # Number of insts issued each cycle
system.cpu0.iq.issued_per_cycle::3              34938      7.35%     47.22% # Number of insts issued each cycle
system.cpu0.iq.issued_per_cycle::4             250794     52.78%    100.00% # Number of insts issued each cycle
system.cpu0.iq.issued_per_cycle::overflows            0      0.00%    100.00% # Number of insts issued each cycle
system.cpu0.iq.issued_per_cycle::min_value            0                       # Number of insts issued each cycle
system.cpu0.iq.issued_per_cycle::max_value            4                       # Number of insts issued each cycle
system.cpu0.iq.issued_per_cycle::total         475147                       # Number of insts issued each cycle
system.cpu0.iq.fu_full::No_OpClass                  0      0.00%      0.00% # attempts to use FU when none available
system.cpu0.iq.fu_full::IntAlu                      0      0.00%      0.00% # attempts to use FU when none available
system.cpu0.iq.fu_full::IntMult                  5065    100.00%    100.00% # attempts to use FU when none available
system.cpu0.iq.fu_full::IntDiv                      0      0.00%    100.00% # attempts to use FU when none available
system.cpu0.iq.fu_full::FloatAdd                    0      0.00%    100.00% # attempts to use FU when none available
system.cpu0.iq.fu_full::FloatCmp                    0      0.00%    100.00% # attempts to use FU when none available
system.cpu0.iq.fu_full::FloatCvt                    0      0.00%    100.00% # attempts to use FU when none available
system.cpu0.iq.fu_full::FloatMult                   0      0.00%    100.00% # attempts to use FU when none available
system.cpu0.iq.fu_full::FloatDiv                    0      0.00%    100.00% # attempts to use FU when none available
system.cpu0.iq.fu_full::FloatSqrt                   0      0.00%    100.00% # attempts to use FU when none available
system.cpu0.iq.fu_full::SimdAdd                     0      0.00%    100.00% # attempts to use FU when none available
system.cpu0.iq.fu_full::SimdAddAcc                  0      0.00%    100.00% # attempts to use FU when none available
system.cpu0.iq.fu_full::SimdAlu                     0      0.00%    100.00% # attempts to use FU when none available
system.cpu0.iq.fu_full::SimdCmp                     0      0.00%    100.00% # attempts to use FU when none available
system.cpu0.iq.fu_full::SimdCvt                     0      0.00%    100.00% # attempts to use FU when none available
system.cpu0.iq.fu_full::SimdMisc                    0      0.00%    100.00% # attempts to use FU when none available
system.cpu0.iq.fu_full::SimdMult                    0      0.00%    100.00% # attempts to use FU when none available
system.cpu0.iq.fu_full::SimdMultAcc                 0      0.00%    100.00% # attempts to use FU when none available
system.cpu0.iq.fu_full::SimdShift                   0      0.00%    100.00% # attempts to use FU when none available
system.cpu0.iq.fu_full::SimdShiftAcc                0      0.00%    100.00% # attempts to use FU when none available
system.cpu0.iq.fu_full::SimdSqrt                    0      0.00%    100.00% # attempts to use FU when none available
system.cpu0.iq.fu_full::SimdFloatAdd                0      0.00%    100.00% # attempts to use FU when none available
system.cpu0.iq.fu_full::SimdFloatAlu                0      0.00%    100.00% # attempts to use FU when none available
system.cpu0.iq.fu_full::SimdFloatCmp                0      0.00%    100.00% # attempts to use FU when none available
system.cpu0.iq.fu_full::SimdFloatCvt                0      0.00%    100.00% # attempts to use FU when none available
system.cpu0.iq.fu_full::SimdFloatDiv                0      0.00%    100.00% # attempts to use FU when none available
system.cpu0.iq.fu_full::SimdFloatMisc               0      0.00%    100.00% # attempts to use FU when none available
system.cpu0.iq.fu_full::SimdFloatMult               0      0.00%    100.00% # attempts to use FU when none available
system.cpu0.iq.fu_full::SimdFloatMultAcc            0      0.00%    100.00% # attempts to use FU when none available
system.cpu0.iq.fu_full::SimdFloatSqrt               0      0.00%    100.00% # attempts to use FU when none available
system.cpu0.iq.fu_full::MemRead                     0      0.00%    100.00% # attempts to use FU when none available
system.cpu0.iq.fu_full::MemWrite                    0      0.00%    100.00% # attempts to use FU when none available
system.cpu0.iq.fu_full::IprAccess                   0      0.00%    100.00% # attempts to use FU when none available
system.cpu0.iq.fu_full::InstPrefetch                0      0.00%    100.00% # attempts to use FU when none available
system.cpu0.iq.FU_type_0::No_OpClass                0      0.00%      0.00% # Type of FU issued
system.cpu0.iq.FU_type_0::IntAlu               639234     54.68%     54.68% # Type of FU issued
system.cpu0.iq.FU_type_0::IntMult              205054     17.54%     72.21% # Type of FU issued
system.cpu0.iq.FU_type_0::IntDiv                    0      0.00%     72.21% # Type of FU issued
system.cpu0.iq.FU_type_0::FloatAdd                  0      0.00%     72.21% # Type of FU issued
system.cpu0.iq.FU_type_0::FloatCmp                  0      0.00%     72.21% # Type of FU issued
system.cpu0.iq.FU_type_0::FloatCvt                  0      0.00%     72.21% # Type of FU issued
system.cpu0.iq.FU_type_0::FloatMult                 0      0.00%     72.21% # Type of FU issued
system.cpu0.iq.FU_type_0::FloatDiv                  0      0.00%     72.21% # Type of FU issued
system.cpu0.iq.FU_type_0::FloatSqrt                 0      0.00%     72.21% # Type of FU issued
system.cpu0.iq.FU_type_0::SimdAdd                   0      0.00%     72.21% # Type of FU issued
system.cpu0.iq.FU_type_0::SimdAddAcc                0      0.00%     72.21% # Type of FU issued
system.cpu0.iq.FU_type_0::SimdAlu                   0      0.00%     72.21% # Type of FU issued
system.cpu0.iq.FU_type_0::SimdCmp                   0      0.00%     72.21% # Type of FU issued
system.cpu0.iq.FU_type_0::SimdCvt                   0      0.00%     72.21% # Type of FU issued
system.cpu0.iq.FU_type_0::SimdMisc                  0      0.00%     72.21% # Type of FU issued
system.cpu0.iq.FU_type_0::SimdMult                  0      0.00%     72.21% # Type of FU issued
system.cpu0.iq.FU_type_0::SimdMultAcc               0      0.00%     72.21% # Type of FU issued
system.cpu0.iq.FU_type_0::SimdShift                 0      0.00%     72.21% # Type of FU issued
system.cpu0.iq.FU_type_0::SimdShiftAcc              0      0.00%     72.21% # Type of FU issued
system.cpu0.iq.FU_type_0::SimdSqrt                  0      0.00%     72.21% # Type of FU issued
system.cpu0.iq.FU_type_0::SimdFloatAdd              0      0.00%     72.21% # Type of FU issued
system.cpu0.iq.FU_type_0::SimdFloatAlu              0      0.00%     72.21% # Type of FU issued
system.cpu0.iq.FU_type_0::SimdFloatCmp              0      0.00%     72.21% # Type of FU issued
system.cpu0.iq.FU_type_0::SimdFloatCvt              0      0.00%     72.21% # Type of FU issued
system.cpu0.iq.FU_type_0::SimdFloatDiv              0      0.00%     72.21% # Type of FU issued
system.cpu0.iq.FU_type_0::SimdFloatMisc             3      0.00%     72.22% # Type of FU issued
system.cpu0.iq.FU_type_0::SimdFloatMult             0      0.00%     72.22% # Type of FU issued
system.cpu0.iq.FU_type_0::SimdFloatMultAcc            0      0.00%     72.22% # Type of FU issued
system.cpu0.iq.FU_type_0::SimdFloatSqrt             0      0.00%     72.22% # Type of FU issued
system.cpu0.iq.FU_type_0::MemRead              276295     23.63%     95.85% # Type of FU issued
system.cpu0.iq.FU_type_0::MemWrite              48549      4.15%    100.00% # Type of FU issued
system.cpu0.iq.FU_type_0::IprAccess                 0      0.00%    100.00% # Type of FU issued
system.cpu0.iq.FU_type_0::InstPrefetch              0      0.00%    100.00% # Type of FU issued
system.cpu0.iq.FU_type_0::total               1169135                       # Type of FU issued
system.cpu0.iq.rate                          2.247083                       # Inst issue rate
system.cpu0.iq.fu_busy_cnt                       5065                       # FU busy when requested
system.cpu0.iq.fu_busy_rate                  0.004332                       # FU busy rate (busy events/executed inst)
system.cpu0.iq.int_inst_queue_reads           2820229                       # Number of integer instruction queue reads
system.cpu0.iq.int_inst_queue_writes          1239259                       # Number of integer instruction queue writes
system.cpu0.iq.int_inst_queue_wakeup_accesses      1162939                       # Number of integer instruction queue wakeup accesses
system.cpu0.iq.fp_inst_queue_reads                 56                       # Number of floating instruction queue reads
system.cpu0.iq.fp_inst_queue_writes                28                       # Number of floating instruction queue writes
system.cpu0.iq.fp_inst_queue_wakeup_accesses           28                       # Number of floating instruction queue wakeup accesses
system.cpu0.iq.int_alu_accesses               1174172                       # Number of integer alu accesses
system.cpu0.iq.fp_alu_accesses                     28                       # Number of floating point alu accesses
system.cpu0.iew.lsq.thread0.forwLoads             127                       # Number of loads that had data forwarded from stores
system.cpu0.iew.lsq.thread0.invAddrLoads            0                       # Number of loads ignored due to an invalid address
system.cpu0.iew.lsq.thread0.squashedLoads        10838                       # Number of loads squashed
system.cpu0.iew.lsq.thread0.ignoredResponses            6                       # Number of memory responses ignored because the instruction is squashed
system.cpu0.iew.lsq.thread0.memOrderViolation           74                       # Number of memory ordering violations
system.cpu0.iew.lsq.thread0.squashedStores         1952                       # Number of stores squashed
system.cpu0.iew.lsq.thread0.invAddrSwpfs            0                       # Number of software prefetches ignored due to an invalid address
system.cpu0.iew.lsq.thread0.blockedLoads            0                       # Number of blocked loads due to partial load-store forwarding
system.cpu0.iew.lsq.thread0.rescheduledLoads          153                       # Number of loads that were rescheduled
system.cpu0.iew.lsq.thread0.cacheBlocked           93                       # Number of times an access to memory failed due to the cache being blocked
system.cpu0.iew.iewIdleCycles                       0                       # Number of cycles IEW is idle
system.cpu0.iew.iewSquashCycles                  1953                       # Number of cycles IEW is squashing
system.cpu0.iew.iewBlockCycles                   4952                       # Number of cycles IEW is blocking
system.cpu0.iew.iewUnblockCycles                  588                       # Number of cycles IEW is unblocking
system.cpu0.iew.iewDispatchedInsts            1196033                       # Number of instructions dispatched to IQ
system.cpu0.iew.iewDispSquashedInsts              237                       # Number of squashed instructions skipped by dispatch
system.cpu0.iew.iewDispLoadInsts               280496                       # Number of dispatched load instructions
system.cpu0.iew.iewDispStoreInsts               49901                       # Number of dispatched store instructions
system.cpu0.iew.iewDispNonSpecInsts               125                       # Number of dispatched non-speculative instructions
system.cpu0.iew.iewIQFullEvents                    27                       # Number of times the IQ has become full, causing a stall
system.cpu0.iew.iewLSQFullEvents                  552                       # Number of times the LSQ has become full, causing a stall
system.cpu0.iew.memOrderViolationEvents            74                       # Number of memory order violations
system.cpu0.iew.predictedTakenIncorrect          1298                       # Number of branches that were predicted taken incorrectly
system.cpu0.iew.predictedNotTakenIncorrect          645                       # Number of branches that were predicted not taken incorrectly
system.cpu0.iew.branchMispredicts                1943                       # Number of branch mispredicts detected at execute
system.cpu0.iew.iewExecutedInsts              1166312                       # Number of executed instructions
system.cpu0.iew.iewExecLoadInsts               274419                       # Number of load instructions executed
system.cpu0.iew.iewExecSquashedInsts             2823                       # Number of squashed instructions skipped in execute
system.cpu0.iew.exec_swp                            0                       # number of swp insts executed
system.cpu0.iew.exec_nop                            7                       # number of nop insts executed
system.cpu0.iew.exec_refs                      322836                       # number of memory reference insts executed
system.cpu0.iew.exec_branches                   82655                       # Number of branches executed
system.cpu0.iew.exec_stores                     48417                       # Number of stores executed
system.cpu0.iew.exec_rate                    2.241658                       # Inst execution rate
system.cpu0.iew.wb_sent                       1163701                       # cumulative count of insts sent to commit
system.cpu0.iew.wb_count                      1162967                       # cumulative count of insts written-back
system.cpu0.iew.wb_producers                   984424                       # num instructions producing a value
system.cpu0.iew.wb_consumers                  1667290                       # num instructions consuming a value
system.cpu0.iew.wb_penalized                        0                       # number of instrctions required to write to 'other' IQ
system.cpu0.iew.wb_rate                      2.235228                       # insts written-back per cycle
system.cpu0.iew.wb_fanout                    0.590434                       # average fanout of values written-back
system.cpu0.iew.wb_penalized_rate                   0                       # fraction of instructions written-back that wrote to 'other' IQ
system.cpu0.commit.commitSquashedInsts          43203                       # The number of squashed insts skipped by commit
system.cpu0.commit.commitNonSpecStalls            189                       # The number of times commit has been forced to stall to communicate backwards
system.cpu0.commit.branchMispredicts             1887                       # The number of times a branch was mispredicted
system.cpu0.commit.committed_per_cycle::samples       469029                       # Number of insts commited each cycle
system.cpu0.commit.committed_per_cycle::mean     2.457923                       # Number of insts commited each cycle
system.cpu0.commit.committed_per_cycle::stdev     3.025128                       # Number of insts commited each cycle
system.cpu0.commit.committed_per_cycle::underflows            0      0.00%      0.00% # Number of insts commited each cycle
system.cpu0.commit.committed_per_cycle::0       191503     40.83%     40.83% # Number of insts commited each cycle
system.cpu0.commit.committed_per_cycle::1       100816     21.49%     62.32% # Number of insts commited each cycle
system.cpu0.commit.committed_per_cycle::2        18802      4.01%     66.33% # Number of insts commited each cycle
system.cpu0.commit.committed_per_cycle::3         7170      1.53%     67.86% # Number of insts commited each cycle
system.cpu0.commit.committed_per_cycle::4        13900      2.96%     70.83% # Number of insts commited each cycle
system.cpu0.commit.committed_per_cycle::5        38652      8.24%     79.07% # Number of insts commited each cycle
system.cpu0.commit.committed_per_cycle::6        17152      3.66%     82.72% # Number of insts commited each cycle
system.cpu0.commit.committed_per_cycle::7         7137      1.52%     84.24% # Number of insts commited each cycle
system.cpu0.commit.committed_per_cycle::8        73897     15.76%    100.00% # Number of insts commited each cycle
system.cpu0.commit.committed_per_cycle::overflows            0      0.00%    100.00% # Number of insts commited each cycle
system.cpu0.commit.committed_per_cycle::min_value            0                       # Number of insts commited each cycle
system.cpu0.commit.committed_per_cycle::max_value            8                       # Number of insts commited each cycle
system.cpu0.commit.committed_per_cycle::total       469029                       # Number of insts commited each cycle
system.cpu0.commit.committedInsts             1123233                       # Number of instructions committed
system.cpu0.commit.committedOps               1152837                       # Number of ops (including micro ops) committed
system.cpu0.commit.swp_count                        0                       # Number of s/w prefetches committed
system.cpu0.commit.refs                        317607                       # Number of memory references committed
system.cpu0.commit.loads                       269658                       # Number of loads committed
system.cpu0.commit.membars                        113                       # Number of memory barriers committed
system.cpu0.commit.branches                     81477                       # Number of branches committed
system.cpu0.commit.fp_insts                        28                       # Number of committed floating point instructions.
system.cpu0.commit.int_insts                  1071941                       # Number of committed integer instructions.
system.cpu0.commit.function_calls                 325                       # Number of function calls committed.
system.cpu0.commit.op_class_0::No_OpClass            0      0.00%      0.00% # Class of committed instruction
system.cpu0.commit.op_class_0::IntAlu          630377     54.68%     54.68% # Class of committed instruction
system.cpu0.commit.op_class_0::IntMult         204850     17.77%     72.45% # Class of committed instruction
system.cpu0.commit.op_class_0::IntDiv               0      0.00%     72.45% # Class of committed instruction
system.cpu0.commit.op_class_0::FloatAdd             0      0.00%     72.45% # Class of committed instruction
system.cpu0.commit.op_class_0::FloatCmp             0      0.00%     72.45% # Class of committed instruction
system.cpu0.commit.op_class_0::FloatCvt             0      0.00%     72.45% # Class of committed instruction
system.cpu0.commit.op_class_0::FloatMult            0      0.00%     72.45% # Class of committed instruction
system.cpu0.commit.op_class_0::FloatDiv             0      0.00%     72.45% # Class of committed instruction
system.cpu0.commit.op_class_0::FloatSqrt            0      0.00%     72.45% # Class of committed instruction
system.cpu0.commit.op_class_0::SimdAdd              0      0.00%     72.45% # Class of committed instruction
system.cpu0.commit.op_class_0::SimdAddAcc            0      0.00%     72.45% # Class of committed instruction
system.cpu0.commit.op_class_0::SimdAlu              0      0.00%     72.45% # Class of committed instruction
system.cpu0.commit.op_class_0::SimdCmp              0      0.00%     72.45% # Class of committed instruction
system.cpu0.commit.op_class_0::SimdCvt              0      0.00%     72.45% # Class of committed instruction
system.cpu0.commit.op_class_0::SimdMisc             0      0.00%     72.45% # Class of committed instruction
system.cpu0.commit.op_class_0::SimdMult             0      0.00%     72.45% # Class of committed instruction
system.cpu0.commit.op_class_0::SimdMultAcc            0      0.00%     72.45% # Class of committed instruction
system.cpu0.commit.op_class_0::SimdShift            0      0.00%     72.45% # Class of committed instruction
system.cpu0.commit.op_class_0::SimdShiftAcc            0      0.00%     72.45% # Class of committed instruction
system.cpu0.commit.op_class_0::SimdSqrt             0      0.00%     72.45% # Class of committed instruction
system.cpu0.commit.op_class_0::SimdFloatAdd            0      0.00%     72.45% # Class of committed instruction
system.cpu0.commit.op_class_0::SimdFloatAlu            0      0.00%     72.45% # Class of committed instruction
system.cpu0.commit.op_class_0::SimdFloatCmp            0      0.00%     72.45% # Class of committed instruction
system.cpu0.commit.op_class_0::SimdFloatCvt            0      0.00%     72.45% # Class of committed instruction
system.cpu0.commit.op_class_0::SimdFloatDiv            0      0.00%     72.45% # Class of committed instruction
system.cpu0.commit.op_class_0::SimdFloatMisc            3      0.00%     72.45% # Class of committed instruction
system.cpu0.commit.op_class_0::SimdFloatMult            0      0.00%     72.45% # Class of committed instruction
system.cpu0.commit.op_class_0::SimdFloatMultAcc            0      0.00%     72.45% # Class of committed instruction
system.cpu0.commit.op_class_0::SimdFloatSqrt            0      0.00%     72.45% # Class of committed instruction
system.cpu0.commit.op_class_0::MemRead         269658     23.39%     95.84% # Class of committed instruction
system.cpu0.commit.op_class_0::MemWrite         47949      4.16%    100.00% # Class of committed instruction
system.cpu0.commit.op_class_0::IprAccess            0      0.00%    100.00% # Class of committed instruction
[...]
system.l2.demand_mshr_miss_latency::cpu3.inst       295500                       # number of demand (read+write) MSHR miss cycles
system.l2.demand_mshr_miss_latency::cpu3.data       353750                       # number of demand (read+write) MSHR miss cycles
system.l2.demand_mshr_miss_latency::total    150266750                       # number of demand (read+write) MSHR miss cycles
system.l2.overall_mshr_miss_latency::cpu0.inst     35742750                       # number of overall MSHR miss cycles
system.l2.overall_mshr_miss_latency::cpu0.data    110903500                       # number of overall MSHR miss cycles
system.l2.overall_mshr_miss_latency::cpu1.inst      1159750                       # number of overall MSHR miss cycles
system.l2.overall_mshr_miss_latency::cpu1.data       522750                       # number of overall MSHR miss cycles
system.l2.overall_mshr_miss_latency::cpu2.inst       897500                       # number of overall MSHR miss cycles
system.l2.overall_mshr_miss_latency::cpu2.data       391250                       # number of overall MSHR miss cycles
system.l2.overall_mshr_miss_latency::cpu3.inst       295500                       # number of overall MSHR miss cycles
system.l2.overall_mshr_miss_latency::cpu3.data       353750                       # number of overall MSHR miss cycles
system.l2.overall_mshr_miss_latency::total    150266750                       # number of overall MSHR miss cycles
system.l2.ReadReq_mshr_miss_rate::cpu0.inst     0.849693                       # mshr miss rate for ReadReq accesses
system.l2.ReadReq_mshr_miss_rate::cpu0.data     0.064315                       # mshr miss rate for ReadReq accesses
system.l2.ReadReq_mshr_miss_rate::cpu1.inst     0.326923                       # mshr miss rate for ReadReq accesses
system.l2.ReadReq_mshr_miss_rate::cpu1.data     0.011111                       # mshr miss rate for ReadReq accesses
system.l2.ReadReq_mshr_miss_rate::cpu2.inst     0.113208                       # mshr miss rate for ReadReq accesses
system.l2.ReadReq_mshr_miss_rate::cpu3.inst     0.068966                       # mshr miss rate for ReadReq accesses
system.l2.ReadReq_mshr_miss_rate::cpu3.data     0.013514                       # mshr miss rate for ReadReq accesses
system.l2.ReadReq_mshr_miss_rate::total      0.227697                       # mshr miss rate for ReadReq accesses
system.l2.UpgradeReq_mshr_miss_rate::cpu0.data     0.803922                       # mshr miss rate for UpgradeReq accesses
system.l2.UpgradeReq_mshr_miss_rate::total     0.803922                       # mshr miss rate for UpgradeReq accesses
system.l2.ReadExReq_mshr_miss_rate::cpu0.data     0.479119                       # mshr miss rate for ReadExReq accesses
system.l2.ReadExReq_mshr_miss_rate::cpu1.data     0.003933                       # mshr miss rate for ReadExReq accesses
system.l2.ReadExReq_mshr_miss_rate::cpu2.data     0.003937                       # mshr miss rate for ReadExReq accesses
system.l2.ReadExReq_mshr_miss_rate::cpu3.data     0.003941                       # mshr miss rate for ReadExReq accesses
system.l2.ReadExReq_mshr_miss_rate::total     0.257793                       # mshr miss rate for ReadExReq accesses
system.l2.demand_mshr_miss_rate::cpu0.inst     0.849693                       # mshr miss rate for demand accesses
system.l2.demand_mshr_miss_rate::cpu0.data     0.331674                       # mshr miss rate for demand accesses
system.l2.demand_mshr_miss_rate::cpu1.inst     0.326923                       # mshr miss rate for demand accesses
system.l2.demand_mshr_miss_rate::cpu1.data     0.004517                       # mshr miss rate for demand accesses
system.l2.demand_mshr_miss_rate::cpu2.inst     0.113208                       # mshr miss rate for demand accesses
system.l2.demand_mshr_miss_rate::cpu2.data     0.003295                       # mshr miss rate for demand accesses
system.l2.demand_mshr_miss_rate::cpu3.inst     0.068966                       # mshr miss rate for demand accesses
system.l2.demand_mshr_miss_rate::cpu3.data     0.004591                       # mshr miss rate for demand accesses
system.l2.demand_mshr_miss_rate::total       0.248109                       # mshr miss rate for demand accesses
system.l2.overall_mshr_miss_rate::cpu0.inst     0.849693                       # mshr miss rate for overall accesses
system.l2.overall_mshr_miss_rate::cpu0.data     0.331674                       # mshr miss rate for overall accesses
system.l2.overall_mshr_miss_rate::cpu1.inst     0.326923                       # mshr miss rate for overall accesses
system.l2.overall_mshr_miss_rate::cpu1.data     0.004517                       # mshr miss rate for overall accesses
system.l2.overall_mshr_miss_rate::cpu2.inst     0.113208                       # mshr miss rate for overall accesses
system.l2.overall_mshr_miss_rate::cpu2.data     0.003295                       # mshr miss rate for overall accesses
system.l2.overall_mshr_miss_rate::cpu3.inst     0.068966                       # mshr miss rate for overall accesses
system.l2.overall_mshr_miss_rate::cpu3.data     0.004591                       # mshr miss rate for overall accesses
system.l2.overall_mshr_miss_rate::total      0.248109                       # mshr miss rate for overall accesses
system.l2.ReadReq_avg_mshr_miss_latency::cpu0.inst 64517.599278                       # average ReadReq mshr miss latency
system.l2.ReadReq_avg_mshr_miss_latency::cpu0.data 70733.870968                       # average ReadReq mshr miss latency
system.l2.ReadReq_avg_mshr_miss_latency::cpu1.inst 68220.588235                       # average ReadReq mshr miss latency
system.l2.ReadReq_avg_mshr_miss_latency::cpu1.data        70000                       # average ReadReq mshr miss latency
system.l2.ReadReq_avg_mshr_miss_latency::cpu2.inst 149583.333333                       # average ReadReq mshr miss latency
system.l2.ReadReq_avg_mshr_miss_latency::cpu3.inst        73875                       # average ReadReq mshr miss latency
system.l2.ReadReq_avg_mshr_miss_latency::cpu3.data        63500                       # average ReadReq mshr miss latency
system.l2.ReadReq_avg_mshr_miss_latency::total 66478.076379                       # average ReadReq mshr miss latency
system.l2.UpgradeReq_avg_mshr_miss_latency::cpu0.data 17830.219512                       # average UpgradeReq mshr miss latency
system.l2.UpgradeReq_avg_mshr_miss_latency::total 17830.219512                       # average UpgradeReq mshr miss latency
system.l2.ReadExReq_avg_mshr_miss_latency::cpu0.data 60974.626866                       # average ReadExReq mshr miss latency
system.l2.ReadExReq_avg_mshr_miss_latency::cpu1.data 113187.500000                       # average ReadExReq mshr miss latency
system.l2.ReadExReq_avg_mshr_miss_latency::cpu2.data 97812.500000                       # average ReadExReq mshr miss latency
system.l2.ReadExReq_avg_mshr_miss_latency::cpu3.data 72562.500000                       # average ReadExReq mshr miss latency
system.l2.ReadExReq_avg_mshr_miss_latency::total 61213.248370                       # average ReadExReq mshr miss latency
system.l2.demand_avg_mshr_miss_latency::cpu0.inst 64517.599278                       # average overall mshr miss latency
system.l2.demand_avg_mshr_miss_latency::cpu0.data 61647.304058                       # average overall mshr miss latency
system.l2.demand_avg_mshr_miss_latency::cpu1.inst 68220.588235                       # average overall mshr miss latency
system.l2.demand_avg_mshr_miss_latency::cpu1.data       104550                       # average overall mshr miss latency
system.l2.demand_avg_mshr_miss_latency::cpu2.inst 149583.333333                       # average overall mshr miss latency
system.l2.demand_avg_mshr_miss_latency::cpu2.data 97812.500000                       # average overall mshr miss latency
system.l2.demand_avg_mshr_miss_latency::cpu3.inst        73875                       # average overall mshr miss latency
system.l2.demand_avg_mshr_miss_latency::cpu3.data        70750                       # average overall mshr miss latency
system.l2.demand_avg_mshr_miss_latency::total 62768.065998                       # average overall mshr miss latency
system.l2.overall_avg_mshr_miss_latency::cpu0.inst 64517.599278                       # average overall mshr miss latency
system.l2.overall_avg_mshr_miss_latency::cpu0.data 61647.304058                       # average overall mshr miss latency
system.l2.overall_avg_mshr_miss_latency::cpu1.inst 68220.588235                       # average overall mshr miss latency
system.l2.overall_avg_mshr_miss_latency::cpu1.data       104550                       # average overall mshr miss latency
system.l2.overall_avg_mshr_miss_latency::cpu2.inst 149583.333333                       # average overall mshr miss latency
system.l2.overall_avg_mshr_miss_latency::cpu2.data 97812.500000                       # average overall mshr miss latency
system.l2.overall_avg_mshr_miss_latency::cpu3.inst        73875                       # average overall mshr miss latency
system.l2.overall_avg_mshr_miss_latency::cpu3.data        70750                       # average overall mshr miss latency
system.l2.overall_avg_mshr_miss_latency::total 62768.065998                       # average overall mshr miss latency
system.l2.no_allocate_misses                        0                       # Number of misses that were no-allocate
system.membus.trans_dist::ReadReq                 706                       # Transaction distribution
system.membus.trans_dist::ReadResp                705                       # Transaction distribution
system.membus.trans_dist::UpgradeReq               50                       # Transaction distribution
system.membus.trans_dist::SCUpgradeReq              8                       # Transaction distribution
system.membus.trans_dist::UpgradeResp              41                       # Transaction distribution
system.membus.trans_dist::ReadExReq              1687                       # Transaction distribution
system.membus.trans_dist::ReadExResp             1687                       # Transaction distribution
system.membus.pkt_count_system.l2.mem_side::system.mem_ctrls.port         4884                       # Packet count per connected master and slave (bytes)
system.membus.pkt_count::total                   4884                       # Packet count per connected master and slave (bytes)
system.membus.pkt_size_system.l2.mem_side::system.mem_ctrls.port       153088                       # Cumulative packet size per connected master and slave (bytes)
system.membus.pkt_size::total                  153088                       # Cumulative packet size per connected master and slave (bytes)
system.membus.snoops                               17                       # Total snoops (count)
system.membus.snoop_fanout::samples              2451                       # Request fanout histogram
system.membus.snoop_fanout::mean                    0                       # Request fanout histogram
system.membus.snoop_fanout::stdev                   0                       # Request fanout histogram
system.membus.snoop_fanout::underflows              0      0.00%      0.00% # Request fanout histogram
system.membus.snoop_fanout::0                    2451    100.00%    100.00% # Request fanout histogram
system.membus.snoop_fanout::1                       0      0.00%    100.00% # Request fanout histogram
system.membus.snoop_fanout::overflows               0      0.00%    100.00% # Request fanout histogram
system.membus.snoop_fanout::min_value               0                       # Request fanout histogram
system.membus.snoop_fanout::max_value               0                       # Request fanout histogram
system.membus.snoop_fanout::total                2451                       # Request fanout histogram
system.membus.reqLayer0.occupancy             2652002                       # Layer occupancy (ticks)
system.membus.reqLayer0.utilization               1.0                       # Layer utilization (%)
system.membus.respLayer1.occupancy           12676209                       # Layer occupancy (ticks)
system.membus.respLayer1.utilization              4.9                       # Layer utilization (%)
system.tol2bus.trans_dist::ReadReq              10146                       # Transaction distribution
system.tol2bus.trans_dist::ReadResp             10144                       # Transaction distribution
system.tol2bus.trans_dist::Writeback             6870                       # Transaction distribution
system.tol2bus.trans_dist::UpgradeReq              60                       # Transaction distribution
system.tol2bus.trans_dist::SCUpgradeReq             9                       # Transaction distribution
system.tol2bus.trans_dist::UpgradeResp             69                       # Transaction distribution
system.tol2bus.trans_dist::SCUpgradeFailReq            1                       # Transaction distribution
system.tol2bus.trans_dist::UpgradeFailResp            1                       # Transaction distribution
system.tol2bus.trans_dist::ReadExReq             6550                       # Transaction distribution
system.tol2bus.trans_dist::ReadExResp            6550                       # Transaction distribution
system.tol2bus.pkt_count_system.cpu0.icache.mem_side::system.l2.cpu_side         1302                       # Packet count per connected master and slave (bytes)
system.tol2bus.pkt_count_system.cpu0.dcache.mem_side::system.l2.cpu_side        14566                       # Packet count per connected master and slave (bytes)
system.tol2bus.pkt_count_system.cpu1.icache.mem_side::system.l2.cpu_side          104                       # Packet count per connected master and slave (bytes)
system.tol2bus.pkt_count_system.cpu1.dcache.mem_side::system.l2.cpu_side         5688                       # Packet count per connected master and slave (bytes)
system.tol2bus.pkt_count_system.cpu2.icache.mem_side::system.l2.cpu_side          106                       # Packet count per connected master and slave (bytes)
system.tol2bus.pkt_count_system.cpu2.dcache.mem_side::system.l2.cpu_side         5859                       # Packet count per connected master and slave (bytes)
system.tol2bus.pkt_count_system.cpu3.icache.mem_side::system.l2.cpu_side          116                       # Packet count per connected master and slave (bytes)
system.tol2bus.pkt_count_system.cpu3.dcache.mem_side::system.l2.cpu_side         5594                       # Packet count per connected master and slave (bytes)
system.tol2bus.pkt_count::total                 33335                       # Packet count per connected master and slave (bytes)
system.tol2bus.pkt_size_system.cpu0.icache.mem_side::system.l2.cpu_side        41600                       # Cumulative packet size per connected master and slave (bytes)
system.tol2bus.pkt_size_system.cpu0.dcache.mem_side::system.l2.cpu_side       577280                       # Cumulative packet size per connected master and slave (bytes)
system.tol2bus.pkt_size_system.cpu1.icache.mem_side::system.l2.cpu_side         3328                       # Cumulative packet size per connected master and slave (bytes)
system.tol2bus.pkt_size_system.cpu1.dcache.mem_side::system.l2.cpu_side       139136                       # Cumulative packet size per connected master and slave (bytes)
system.tol2bus.pkt_size_system.cpu2.icache.mem_side::system.l2.cpu_side         3392                       # Cumulative packet size per connected master and slave (bytes)
system.tol2bus.pkt_size_system.cpu2.dcache.mem_side::system.l2.cpu_side       152000                       # Cumulative packet size per connected master and slave (bytes)
system.tol2bus.pkt_size_system.cpu3.icache.mem_side::system.l2.cpu_side         3712                       # Cumulative packet size per connected master and slave (bytes)
system.tol2bus.pkt_size_system.cpu3.dcache.mem_side::system.l2.cpu_side       136640                       # Cumulative packet size per connected master and slave (bytes)
system.tol2bus.pkt_size::total                1057088                       # Cumulative packet size per connected master and slave (bytes)
system.tol2bus.snoops                            7065                       # Total snoops (count)
system.tol2bus.snoop_fanout::samples            23636                       # Request fanout histogram
system.tol2bus.snoop_fanout::mean                   7                       # Request fanout histogram
system.tol2bus.snoop_fanout::stdev                  0                       # Request fanout histogram
system.tol2bus.snoop_fanout::underflows             0      0.00%      0.00% # Request fanout histogram
system.tol2bus.snoop_fanout::0                      0      0.00%      0.00% # Request fanout histogram
system.tol2bus.snoop_fanout::1                      0      0.00%      0.00% # Request fanout histogram
system.tol2bus.snoop_fanout::2                      0      0.00%      0.00% # Request fanout histogram
system.tol2bus.snoop_fanout::3                      0      0.00%      0.00% # Request fanout histogram
system.tol2bus.snoop_fanout::4                      0      0.00%      0.00% # Request fanout histogram
system.tol2bus.snoop_fanout::5                      0      0.00%      0.00% # Request fanout histogram
system.tol2bus.snoop_fanout::6                      0      0.00%      0.00% # Request fanout histogram
system.tol2bus.snoop_fanout::7                  23636    100.00%    100.00% # Request fanout histogram
system.tol2bus.snoop_fanout::8                      0      0.00%    100.00% # Request fanout histogram
system.tol2bus.snoop_fanout::overflows              0      0.00%    100.00% # Request fanout histogram
system.tol2bus.snoop_fanout::min_value              7                       # Request fanout histogram
system.tol2bus.snoop_fanout::max_value              7                       # Request fanout histogram
system.tol2bus.snoop_fanout::total              23636                       # Request fanout histogram
system.tol2bus.reqLayer0.occupancy           18689497                       # Layer occupancy (ticks)
system.tol2bus.reqLayer0.utilization              7.2                       # Layer utilization (%)
system.tol2bus.respLayer0.occupancy           1077985                       # Layer occupancy (ticks)
system.tol2bus.respLayer0.utilization             0.4                       # Layer utilization (%)
system.tol2bus.respLayer1.occupancy           8564770                       # Layer occupancy (ticks)
system.tol2bus.respLayer1.utilization             3.3                       # Layer utilization (%)
system.tol2bus.respLayer4.occupancy             83483                       # Layer occupancy (ticks)
system.tol2bus.respLayer4.utilization             0.0                       # Layer utilization (%)
system.tol2bus.respLayer5.occupancy           5311645                       # Layer occupancy (ticks)
system.tol2bus.respLayer5.utilization             2.0                       # Layer utilization (%)
system.tol2bus.respLayer8.occupancy             85976                       # Layer occupancy (ticks)
system.tol2bus.respLayer8.utilization             0.0                       # Layer utilization (%)
system.tol2bus.respLayer9.occupancy           5254421                       # Layer occupancy (ticks)
system.tol2bus.respLayer9.utilization             2.0                       # Layer utilization (%)
system.tol2bus.respLayer12.occupancy            92973                       # Layer occupancy (ticks)
system.tol2bus.respLayer12.utilization            0.0                       # Layer utilization (%)
system.tol2bus.respLayer13.occupancy          5241370                       # Layer occupancy (ticks)
system.tol2bus.respLayer13.utilization            2.0                       # Layer utilization (%)

---------- End Simulation Statistics   ----------
