
---------- Begin Simulation Statistics ----------
sim_seconds                                  0.000257                       # Number of seconds simulated
sim_ticks                                   256612500                       # Number of ticks simulated
final_tick                                  256612500                       # Number of ticks from beginning of simulation (restored from checkpoints and never reset)
sim_freq                                 1000000000000                       # Frequency of simulated ticks
host_inst_rate                                 212480                       # Simulator instruction rate (inst/s)
host_op_rate                                   214282                       # Simulator op (including micro ops) rate (op/s)
host_tick_rate                               13014160                       # Simulator tick rate (ticks/s)
host_mem_usage                                 665888                       # Number of bytes of host memory used
host_seconds                                    19.72                       # Real time elapsed on the host
sim_insts                                     4189651                       # Number of instructions simulated
sim_ops                                       4225192                       # Number of ops (including micro ops) simulated
system.voltage_domain.voltage                       1                       # Voltage in Volts
system.clk_domain.clock                          1000                       # Clock period in ticks
system.mem_ctrls.bytes_read::cpu0.inst          32704                       # Number of bytes read from this memory
system.mem_ctrls.bytes_read::cpu0.data         114496                       # Number of bytes read from this memory
system.mem_ctrls.bytes_read::cpu1.inst           1088                       # Number of bytes read from this memory
system.mem_ctrls.bytes_read::cpu1.data            320                       # Number of bytes read from this memory
system.mem_ctrls.bytes_read::cpu2.inst            192                       # Number of bytes read from this memory
system.mem_ctrls.bytes_read::cpu2.data            256                       # Number of bytes read from this memory
system.mem_ctrls.bytes_read::cpu3.inst            320                       # Number of bytes read from this memory
system.mem_ctrls.bytes_read::cpu3.data            320                       # Number of bytes read from this memory
system.mem_ctrls.bytes_read::total             149696                       # Number of bytes read from this memory
system.mem_ctrls.bytes_inst_read::cpu0.inst        32704                       # Number of instructions bytes read from this memory
system.mem_ctrls.bytes_inst_read::cpu1.inst         1088                       # Number of instructions bytes read from this memory
system.mem_ctrls.bytes_inst_read::cpu2.inst          192                       # Number of instructions bytes read from this memory
system.mem_ctrls.bytes_inst_read::cpu3.inst          320                       # Number of instructions bytes read from this memory
system.mem_ctrls.bytes_inst_read::total         34304                       # Number of instructions bytes read from this memory
system.mem_ctrls.num_reads::cpu0.inst             511                       # Number of read requests responded to by this memory
system.mem_ctrls.num_reads::cpu0.data            1789                       # Number of read requests responded to by this memory
system.mem_ctrls.num_reads::cpu1.inst              17                       # Number of read requests responded to by this memory
system.mem_ctrls.num_reads::cpu1.data               5                       # Number of read requests responded to by this memory
system.mem_ctrls.num_reads::cpu2.inst               3                       # Number of read requests responded to by this memory
system.mem_ctrls.num_reads::cpu2.data               4                       # Number of read requests responded to by this memory
system.mem_ctrls.num_reads::cpu3.inst               5                       # Number of read requests responded to by this memory
system.mem_ctrls.num_reads::cpu3.data               5                       # Number of read requests responded to by this memory
system.mem_ctrls.num_reads::total                2339                       # Number of read requests responded to by this memory
system.mem_ctrls.bw_read::cpu0.inst         127445078                       # Total read bandwidth from this memory (bytes/s)
system.mem_ctrls.bw_read::cpu0.data         446182474                       # Total read bandwidth from this memory (bytes/s)
system.mem_ctrls.bw_read::cpu1.inst           4239856                       # Total read bandwidth from this memory (bytes/s)
system.mem_ctrls.bw_read::cpu1.data           1247016                       # Total read bandwidth from this memory (bytes/s)
system.mem_ctrls.bw_read::cpu2.inst            748210                       # Total read bandwidth from this memory (bytes/s)
system.mem_ctrls.bw_read::cpu2.data            997613                       # Total read bandwidth from this memory (bytes/s)
system.mem_ctrls.bw_read::cpu3.inst           1247016                       # Total read bandwidth from this memory (bytes/s)
system.mem_ctrls.bw_read::cpu3.data           1247016                       # Total read bandwidth from this memory (bytes/s)
system.mem_ctrls.bw_read::total             583354279                       # Total read bandwidth from this memory (bytes/s)
system.mem_ctrls.bw_inst_read::cpu0.inst    127445078                       # Instruction read bandwidth from this memory (bytes/s)
system.mem_ctrls.bw_inst_read::cpu1.inst      4239856                       # Instruction read bandwidth from this memory (bytes/s)
system.mem_ctrls.bw_inst_read::cpu2.inst       748210                       # Instruction read bandwidth from this memory (bytes/s)
system.mem_ctrls.bw_inst_read::cpu3.inst      1247016                       # Instruction read bandwidth from this memory (bytes/s)
system.mem_ctrls.bw_inst_read::total        133680160                       # Instruction read bandwidth from this memory (bytes/s)
system.mem_ctrls.bw_total::cpu0.inst        127445078                       # Total bandwidth to/from this memory (bytes/s)
system.mem_ctrls.bw_total::cpu0.data        446182474                       # Total bandwidth to/from this memory (bytes/s)
system.mem_ctrls.bw_total::cpu1.inst          4239856                       # Total bandwidth to/from this memory (bytes/s)
system.mem_ctrls.bw_total::cpu1.data          1247016                       # Total bandwidth to/from this memory (bytes/s)
system.mem_ctrls.bw_total::cpu2.inst           748210                       # Total bandwidth to/from this memory (bytes/s)
system.mem_ctrls.bw_total::cpu2.data           997613                       # Total bandwidth to/from this memory (bytes/s)
system.mem_ctrls.bw_total::cpu3.inst          1247016                       # Total bandwidth to/from this memory (bytes/s)
system.mem_ctrls.bw_total::cpu3.data          1247016                       # Total bandwidth to/from this memory (bytes/s)
system.mem_ctrls.bw_total::total            583354279                       # Total bandwidth to/from this memory (bytes/s)
system.mem_ctrls.readReqs                        2339                       # Number of read requests accepted
system.mem_ctrls.writeReqs                          0                       # Number of write requests accepted
system.mem_ctrls.readBursts                      2339                       # Number of DRAM read bursts, including those serviced by the write queue
system.mem_ctrls.writeBursts                        0                       # Number of DRAM write bursts, including those merged in the write queue
system.mem_ctrls.bytesReadDRAM                 149696                       # Total number of bytes read from DRAM
system.mem_ctrls.bytesReadWrQ                       0                       # Total number of bytes read from write queue
system.mem_ctrls.bytesWritten                       0                       # Total number of bytes written to DRAM
system.mem_ctrls.bytesReadSys                  149696                       # Total read bytes from the system interface side
system.mem_ctrls.bytesWrittenSys                    0                       # Total written bytes from the system interface side
system.mem_ctrls.servicedByWrQ                      0                       # Number of DRAM read bursts serviced by the write queue
system.mem_ctrls.mergedWrBursts                     0                       # Number of DRAM write bursts merged with an existing one
system.mem_ctrls.neitherReadNorWriteReqs           47                       # Number of requests that are neither read nor write
system.mem_ctrls.perBankRdBursts::0               118                       # Per bank write bursts
system.mem_ctrls.perBankRdBursts::1               125                       # Per bank write bursts
system.mem_ctrls.perBankRdBursts::2               133                       # Per bank write bursts
system.mem_ctrls.perBankRdBursts::3               195                       # Per bank write bursts
system.mem_ctrls.perBankRdBursts::4               156                       # Per bank write bursts
system.mem_ctrls.perBankRdBursts::5               146                       # Per bank write bursts
system.mem_ctrls.perBankRdBursts::6               209                       # Per bank write bursts
system.mem_ctrls.perBankRdBursts::7               159                       # Per bank write bursts
system.mem_ctrls.perBankRdBursts::8               142                       # Per bank write bursts
system.mem_ctrls.perBankRdBursts::9               138                       # Per bank write bursts
system.mem_ctrls.perBankRdBursts::10              128                       # Per bank write bursts
system.mem_ctrls.perBankRdBursts::11              140                       # Per bank write bursts
system.mem_ctrls.perBankRdBursts::12              134                       # Per bank write bursts
system.mem_ctrls.perBankRdBursts::13              161                       # Per bank write bursts
system.mem_ctrls.perBankRdBursts::14              166                       # Per bank write bursts
system.mem_ctrls.perBankRdBursts::15               89                       # Per bank write bursts
system.mem_ctrls.perBankWrBursts::0                 0                       # Per bank write bursts
system.mem_ctrls.perBankWrBursts::1                 0                       # Per bank write bursts
system.mem_ctrls.perBankWrBursts::2                 0                       # Per bank write bursts
system.mem_ctrls.perBankWrBursts::3                 0                       # Per bank write bursts
system.mem_ctrls.perBankWrBursts::4                 0                       # Per bank write bursts
system.mem_ctrls.perBankWrBursts::5                 0                       # Per bank write bursts
system.mem_ctrls.perBankWrBursts::6                 0                       # Per bank write bursts
system.mem_ctrls.perBankWrBursts::7                 0                       # Per bank write bursts
system.mem_ctrls.perBankWrBursts::8                 0                       # Per bank write bursts
system.mem_ctrls.perBankWrBursts::9                 0                       # Per bank write bursts
system.mem_ctrls.perBankWrBursts::10                0                       # Per bank write bursts
system.mem_ctrls.perBankWrBursts::11                0                       # Per bank write bursts
system.mem_ctrls.perBankWrBursts::12                0                       # Per bank write bursts
system.mem_ctrls.perBankWrBursts::13                0                       # Per bank write bursts
system.mem_ctrls.perBankWrBursts::14                0                       # Per bank write bursts
system.mem_ctrls.perBankWrBursts::15                0                       # Per bank write bursts
system.mem_ctrls.numRdRetry                         0                       # Number of times read queue was full causing retry
system.mem_ctrls.numWrRetry                         0                       # Number of times write queue was full causing retry
system.mem_ctrls.totGap                     256572500                       # Total gap between requests
system.mem_ctrls.readPktSize::0                     0                       # Read request sizes (log2)
system.mem_ctrls.readPktSize::1                     0                       # Read request sizes (log2)
system.mem_ctrls.readPktSize::2                     0                       # Read request sizes (log2)
system.mem_ctrls.readPktSize::3                     0                       # Read request sizes (log2)
system.mem_ctrls.readPktSize::4                     0                       # Read request sizes (log2)
system.mem_ctrls.readPktSize::5                     0                       # Read request sizes (log2)
system.mem_ctrls.readPktSize::6                  2339                       # Read request sizes (log2)
system.mem_ctrls.writePktSize::0                    0                       # Write request sizes (log2)
system.mem_ctrls.writePktSize::1                    0                       # Write request sizes (log2)
system.mem_ctrls.writePktSize::2                    0                       # Write request sizes (log2)
system.mem_ctrls.writePktSize::3                    0                       # Write request sizes (log2)
system.mem_ctrls.writePktSize::4                    0                       # Write request sizes (log2)
system.mem_ctrls.writePktSize::5                    0                       # Write request sizes (log2)
system.mem_ctrls.writePktSize::6                    0                       # Write request sizes (log2)
system.mem_ctrls.rdQLenPdf::0                    1299                       # What read queue length does an incoming req see
system.mem_ctrls.rdQLenPdf::1                     932                       # What read queue length does an incoming req see
system.mem_ctrls.rdQLenPdf::2                      76                       # What read queue length does an incoming req see
system.mem_ctrls.rdQLenPdf::3                      22                       # What read queue length does an incoming req see
system.mem_ctrls.rdQLenPdf::4                       7                       # What read queue length does an incoming req see
system.mem_ctrls.rdQLenPdf::5                       3                       # What read queue length does an incoming req see
system.mem_ctrls.rdQLenPdf::6                       0                       # What read queue length does an incoming req see
system.mem_ctrls.rdQLenPdf::7                       0                       # What read queue length does an incoming req see
system.mem_ctrls.rdQLenPdf::8                       0                       # What read queue length does an incoming req see
system.mem_ctrls.rdQLenPdf::9                       0                       # What read queue length does an incoming req see
system.mem_ctrls.rdQLenPdf::10                      0                       # What read queue length does an incoming req see
system.mem_ctrls.rdQLenPdf::11                      0                       # What read queue length does an incoming req see
system.mem_ctrls.rdQLenPdf::12                      0                       # What read queue length does an incoming req see
system.mem_ctrls.rdQLenPdf::13                      0                       # What read queue length does an incoming req see
system.mem_ctrls.rdQLenPdf::14                      0                       # What read queue length does an incoming req see
system.mem_ctrls.rdQLenPdf::15                      0                       # What read queue length does an incoming req see
system.mem_ctrls.rdQLenPdf::16                      0                       # What read queue length does an incoming req see
system.mem_ctrls.rdQLenPdf::17                      0                       # What read queue length does an incoming req see
system.mem_ctrls.rdQLenPdf::18                      0                       # What read queue length does an incoming req see
system.mem_ctrls.rdQLenPdf::19                      0                       # What read queue length does an incoming req see
system.mem_ctrls.rdQLenPdf::20                      0                       # What read queue length does an incoming req see
system.mem_ctrls.rdQLenPdf::21                      0                       # What read queue length does an incoming req see
system.mem_ctrls.rdQLenPdf::22                      0                       # What read queue length does an incoming req see
system.mem_ctrls.rdQLenPdf::23                      0                       # What read queue length does an incoming req see
system.mem_ctrls.rdQLenPdf::24                      0                       # What read queue length does an incoming req see
system.mem_ctrls.rdQLenPdf::25                      0                       # What read queue length does an incoming req see
system.mem_ctrls.rdQLenPdf::26                      0                       # What read queue length does an incoming req see
system.mem_ctrls.rdQLenPdf::27                      0                       # What read queue length does an incoming req see
system.mem_ctrls.rdQLenPdf::28                      0                       # What read queue length does an incoming req see
system.mem_ctrls.rdQLenPdf::29                      0                       # What read queue length does an incoming req see
system.mem_ctrls.rdQLenPdf::30                      0                       # What read queue length does an incoming req see
system.mem_ctrls.rdQLenPdf::31                      0                       # What read queue length does an incoming req see
system.mem_ctrls.wrQLenPdf::0                       0                       # What write queue length does an incoming req see
system.mem_ctrls.wrQLenPdf::1                       0                       # What write queue length does an incoming req see
system.mem_ctrls.wrQLenPdf::2                       0                       # What write queue length does an incoming req see
system.mem_ctrls.wrQLenPdf::3                       0                       # What write queue length does an incoming req see
system.mem_ctrls.wrQLenPdf::4                       0                       # What write queue length does an incoming req see
system.mem_ctrls.wrQLenPdf::5                       0                       # What write queue length does an incoming req see
system.mem_ctrls.wrQLenPdf::6                       0                       # What write queue length does an incoming req see
system.mem_ctrls.wrQLenPdf::7                       0                       # What write queue length does an incoming req see
system.mem_ctrls.wrQLenPdf::8                       0                       # What write queue length does an incoming req see
system.mem_ctrls.wrQLenPdf::9                       0                       # What write queue length does an incoming req see
system.mem_ctrls.wrQLenPdf::10                      0                       # What write queue length does an incoming req see
system.mem_ctrls.wrQLenPdf::11                      0                       # What write queue length does an incoming req see
system.mem_ctrls.wrQLenPdf::12                      0                       # What write queue length does an incoming req see
system.mem_ctrls.wrQLenPdf::13                      0                       # What write queue length does an incoming req see
system.mem_ctrls.wrQLenPdf::14                      0                       # What write queue length does an incoming req see
system.mem_ctrls.wrQLenPdf::15                      0                       # What write queue length does an incoming req see
system.mem_ctrls.wrQLenPdf::16                      0                       # What write queue length does an incoming req see
system.mem_ctrls.wrQLenPdf::17                      0                       # What write queue length does an incoming req see
system.mem_ctrls.wrQLenPdf::18                      0                       # What write queue length does an incoming req see
system.mem_ctrls.wrQLenPdf::19                      0                       # What write queue length does an incoming req see
system.mem_ctrls.wrQLenPdf::20                      0                       # What write queue length does an incoming req see
system.mem_ctrls.wrQLenPdf::21                      0                       # What write queue length does an incoming req see
system.mem_ctrls.wrQLenPdf::22                      0                       # What write queue length does an incoming req see
system.mem_ctrls.wrQLenPdf::23                      0                       # What write queue length does an incoming req see
system.mem_ctrls.wrQLenPdf::24                      0                       # What write queue length does an incoming req see
system.mem_ctrls.wrQLenPdf::25                      0                       # What write queue length does an incoming req see
system.mem_ctrls.wrQLenPdf::26                      0                       # What write queue length does an incoming req see
system.mem_ctrls.wrQLenPdf::27                      0                       # What write queue length does an incoming req see
system.mem_ctrls.wrQLenPdf::28                      0                       # What write queue length does an incoming req see
system.mem_ctrls.wrQLenPdf::29                      0                       # What write queue length does an incoming req see
system.mem_ctrls.wrQLenPdf::30                      0                       # What write queue length does an incoming req see
system.mem_ctrls.wrQLenPdf::31                      0                       # What write queue length does an incoming req see
system.mem_ctrls.wrQLenPdf::32                      0                       # What write queue length does an incoming req see
system.mem_ctrls.wrQLenPdf::33                      0                       # What write queue length does an incoming req see
system.mem_ctrls.wrQLenPdf::34                      0                       # What write queue length does an incoming req see
system.mem_ctrls.wrQLenPdf::35                      0                       # What write queue length does an incoming req see
system.mem_ctrls.wrQLenPdf::36                      0                       # What write queue length does an incoming req see
system.mem_ctrls.wrQLenPdf::37                      0                       # What write queue length does an incoming req see
system.mem_ctrls.wrQLenPdf::38                      0                       # What write queue length does an incoming req see
system.mem_ctrls.wrQLenPdf::39                      0                       # What write queue length does an incoming req see
system.mem_ctrls.wrQLenPdf::40                      0                       # What write queue length does an incoming req see
system.mem_ctrls.wrQLenPdf::41                      0                       # What write queue length does an incoming req see
system.mem_ctrls.wrQLenPdf::42                      0                       # What write queue length does an incoming req see
system.mem_ctrls.wrQLenPdf::43                      0                       # What write queue length does an incoming req see
system.mem_ctrls.wrQLenPdf::44                      0                       # What write queue length does an incoming req see
system.mem_ctrls.wrQLenPdf::45                      0                       # What write queue length does an incoming req see
system.mem_ctrls.wrQLenPdf::46                      0                       # What write queue length does an incoming req see
system.mem_ctrls.wrQLenPdf::47                      0                       # What write queue length does an incoming req see
system.mem_ctrls.wrQLenPdf::48                      0                       # What write queue length does an incoming req see
system.mem_ctrls.wrQLenPdf::49                      0                       # What write queue length does an incoming req see
system.mem_ctrls.wrQLenPdf::50                      0                       # What write queue length does an incoming req see
system.mem_ctrls.wrQLenPdf::51                      0                       # What write queue length does an incoming req see
system.mem_ctrls.wrQLenPdf::52                      0                       # What write queue length does an incoming req see
system.mem_ctrls.wrQLenPdf::53                      0                       # What write queue length does an incoming req see
system.mem_ctrls.wrQLenPdf::54                      0                       # What write queue length does an incoming req see
system.mem_ctrls.wrQLenPdf::55                      0                       # What write queue length does an incoming req see
system.mem_ctrls.wrQLenPdf::56                      0                       # What write queue length does an incoming req see
system.mem_ctrls.wrQLenPdf::57                      0                       # What write queue length does an incoming req see
system.mem_ctrls.wrQLenPdf::58                      0                       # What write queue length does an incoming req see
system.mem_ctrls.wrQLenPdf::59                      0                       # What write queue length does an incoming req see
system.mem_ctrls.wrQLenPdf::60                      0                       # What write queue length does an incoming req see
system.mem_ctrls.wrQLenPdf::61                      0                       # What write queue length does an incoming req see
system.mem_ctrls.wrQLenPdf::62                      0                       # What write queue length does an incoming req see
system.mem_ctrls.wrQLenPdf::63                      0                       # What write queue length does an incoming req see
system.mem_ctrls.bytesPerActivate::samples          285                       # Bytes accessed per row activation
system.mem_ctrls.bytesPerActivate::mean    518.961404                       # Bytes accessed per row activation
system.mem_ctrls.bytesPerActivate::gmean   308.280194                       # Bytes accessed per row activation
system.mem_ctrls.bytesPerActivate::stdev   418.671863                       # Bytes accessed per row activation
system.mem_ctrls.bytesPerActivate::0-127           73     25.61%     25.61% # Bytes accessed per row activation
system.mem_ctrls.bytesPerActivate::128-255           42     14.74%     40.35% # Bytes accessed per row activation
system.mem_ctrls.bytesPerActivate::256-383           25      8.77%     49.12% # Bytes accessed per row activation
system.mem_ctrls.bytesPerActivate::384-511           11      3.86%     52.98% # Bytes accessed per row activation
system.mem_ctrls.bytesPerActivate::512-639           13      4.56%     57.54% # Bytes accessed per row activation
system.mem_ctrls.bytesPerActivate::640-767           11      3.86%     61.40% # Bytes accessed per row activation
system.mem_ctrls.bytesPerActivate::768-895            4      1.40%     62.81% # Bytes accessed per row activation
system.mem_ctrls.bytesPerActivate::896-1023            5      1.75%     64.56% # Bytes accessed per row activation
system.mem_ctrls.bytesPerActivate::1024-1151          101     35.44%    100.00% # Bytes accessed per row activation
system.mem_ctrls.bytesPerActivate::total          285                       # Bytes accessed per row activation
system.mem_ctrls.totQLat                     15706500                       # Total ticks spent queuing
system.mem_ctrls.totMemAccLat                59562750                       # Total ticks spent from burst creation until serviced by the DRAM
system.mem_ctrls.totBusLat                   11695000                       # Total ticks spent in databus transfers
system.mem_ctrls.avgQLat                      6715.05                       # Average queueing delay per DRAM burst
system.mem_ctrls.avgBusLat                    5000.00                       # Average bus latency per DRAM burst
system.mem_ctrls.avgMemAccLat                25465.05                       # Average memory access latency per DRAM burst
system.mem_ctrls.avgRdBW                       583.35                       # Average DRAM read bandwidth in MiByte/s
system.mem_ctrls.avgWrBW                         0.00                       # Average achieved write bandwidth in MiByte/s
system.mem_ctrls.avgRdBWSys                    583.35                       # Average system read bandwidth in MiByte/s
system.mem_ctrls.avgWrBWSys                      0.00                       # Average system write bandwidth in MiByte/s
system.mem_ctrls.peakBW                      12800.00                       # Theoretical peak bandwidth in MiByte/s
system.mem_ctrls.busUtil                         4.56                       # Data bus utilization in percentage
system.mem_ctrls.busUtilRead                     4.56                       # Data bus utilization in percentage for reads
system.mem_ctrls.busUtilWrite                    0.00                       # Data bus utilization in percentage for writes
system.mem_ctrls.avgRdQLen                       1.32                       # Average read queue length when enqueuing
system.mem_ctrls.avgWrQLen                       0.00                       # Average write queue length when enqueuing
system.mem_ctrls.readRowHits                     2043                       # Number of row buffer hits during reads
system.mem_ctrls.writeRowHits                       0                       # Number of row buffer hits during writes
system.mem_ctrls.readRowHitRate                 87.35                       # Row buffer hit rate for reads
system.mem_ctrls.writeRowHitRate                  nan                       # Row buffer hit rate for writes
system.mem_ctrls.avgGap                     109693.24                       # Average gap between requests
system.mem_ctrls.pageHitRate                    87.35                       # Row buffer hit rate, read and write combined
system.mem_ctrls_0.actEnergy                  1406160                       # Energy for activate commands per rank (pJ)
system.mem_ctrls_0.preEnergy                   767250                       # Energy for precharge commands per rank (pJ)
system.mem_ctrls_0.readEnergy                 9508200                       # Energy for read commands per rank (pJ)
system.mem_ctrls_0.writeEnergy                      0                       # Energy for write commands per rank (pJ)
system.mem_ctrls_0.refreshEnergy             16273920                       # Energy for refresh commands per rank (pJ)
system.mem_ctrls_0.actBackEnergy             54268560                       # Energy for active background per rank (pJ)
system.mem_ctrls_0.preBackEnergy            102039750                       # Energy for precharge background per rank (pJ)
system.mem_ctrls_0.totalEnergy              184263840                       # Total energy per rank (pJ)
system.mem_ctrls_0.averagePower            738.810034                       # Core power per rank (mW)
system.mem_ctrls_0.memoryStateTime::IDLE    171595000                       # Time in different power states
system.mem_ctrls_0.memoryStateTime::REF       8320000                       # Time in different power states
system.mem_ctrls_0.memoryStateTime::PRE_PDN            0                       # Time in different power states
system.mem_ctrls_0.memoryStateTime::ACT      71765500                       # Time in different power states
system.mem_ctrls_0.memoryStateTime::ACT_PDN            0                       # Time in different power states
system.mem_ctrls_1.actEnergy                   695520                       # Energy for activate commands per rank (pJ)
system.mem_ctrls_1.preEnergy                   379500                       # Energy for precharge commands per rank (pJ)
system.mem_ctrls_1.readEnergy                 8268000                       # Energy for read commands per rank (pJ)
system.mem_ctrls_1.writeEnergy                      0                       # Energy for write commands per rank (pJ)
system.mem_ctrls_1.refreshEnergy             16273920                       # Energy for refresh commands per rank (pJ)
system.mem_ctrls_1.actBackEnergy             59248935                       # Energy for active background per rank (pJ)
system.mem_ctrls_1.preBackEnergy             97671000                       # Energy for precharge background per rank (pJ)
system.mem_ctrls_1.totalEnergy              182536875                       # Total energy per rank (pJ)
system.mem_ctrls_1.averagePower            731.885729                       # Core power per rank (mW)
system.mem_ctrls_1.memoryStateTime::IDLE    166105500                       # Time in different power states
system.mem_ctrls_1.memoryStateTime::REF       8320000                       # Time in different power states
system.mem_ctrls_1.memoryStateTime::PRE_PDN            0                       # Time in different power states
system.mem_ctrls_1.memoryStateTime::ACT      79267000                       # Time in different power states
system.mem_ctrls_1.memoryStateTime::ACT_PDN            0                       # Time in different power states
system.cpu0.branchPred.lookups                  88319                       # Number of BP lookups
system.cpu0.branchPred.condPredicted            86181                       # Number of conditional branches predicted
system.cpu0.branchPred.condIncorrect             2085                       # Number of conditional branches incorrect
system.cpu0.branchPred.BTBLookups               86396                       # Number of BTB lookups
system.cpu0.branchPred.BTBHits                  83223                       # Number of BTB hits
system.cpu0.branchPred.BTBCorrect                   0                       # Number of correct BTB predictions (this stat may not work properly.
system.cpu0.branchPred.BTBHitPct            96.327376                       # BTB Hit Percentage
system.cpu0.branchPred.usedRAS                    809                       # Number of times the RAS was used to get a target.
system.cpu0.branchPred.RASInCorrect                14                       # Number of incorrect RAS predictions.
system.cpu_voltage_domain.voltage                   1                       # Voltage in Volts
system.cpu_clk_domain.clock                       500                       # Clock period in ticks
system.cpu0.dstage2_mmu.stage2_tlb.walker.walks            0                       # Table walker walks requested
system.cpu0.dstage2_mmu.stage2_tlb.walker.walkRequestOrigin_Requested::Data            0                       # Table walker requests started/completed, data/inst
system.cpu0.dstage2_mmu.stage2_tlb.walker.walkRequestOrigin_Requested::Inst            0                       # Table walker requests started/completed, data/inst
system.cpu0.dstage2_mmu.stage2_tlb.walker.walkRequestOrigin_Requested::total            0                       # Table walker requests started/completed, data/inst
system.cpu0.dstage2_mmu.stage2_tlb.walker.walkRequestOrigin_Completed::Data            0                       # Table walker requests started/completed, data/inst
system.cpu0.dstage2_mmu.stage2_tlb.walker.walkRequestOrigin_Completed::Inst            0                       # Table walker requests started/completed, data/inst
system.cpu0.dstage2_mmu.stage2_tlb.walker.walkRequestOrigin_Completed::total            0                       # Table walker requests started/completed, data/inst
system.cpu0.dstage2_mmu.stage2_tlb.walker.walkRequestOrigin::total            0                       # Table walker requests started/completed, data/inst
system.cpu0.dstage2_mmu.stage2_tlb.inst_hits            0                       # ITB inst hits
system.cpu0.dstage2_mmu.stage2_tlb.inst_misses            0                       # ITB inst misses
system.cpu0.dstage2_mmu.stage2_tlb.read_hits            0                       # DTB read hits
system.cpu0.dstage2_mmu.stage2_tlb.read_misses            0                       # DTB read misses
system.cpu0.dstage2_mmu.stage2_tlb.write_hits            0                       # DTB write hits
system.cpu0.dstage2_mmu.stage2_tlb.write_misses            0                       # DTB write misses
system.cpu0.dstage2_mmu.stage2_tlb.flush_tlb            0                       # Number of times complete TLB was flushed
system.cpu0.dstage2_mmu.stage2_tlb.flush_tlb_mva            0                       # Number of times TLB was flushed by MVA
system.cpu0.dstage2_mmu.stage2_tlb.flush_tlb_mva_asid            0                       # Number of times TLB was flushed by MVA & ASID
system.cpu0.dstage2_mmu.stage2_tlb.flush_tlb_asid            0                       # Number of times TLB was flushed by ASID
system.cpu0.dstage2_mmu.stage2_tlb.flush_entries            0                       # Number of entries that have been flushed from TLB
system.cpu0.dstage2_mmu.stage2_tlb.align_faults            0                       # Number of TLB faults due to alignment restrictions
system.cpu0.dstage2_mmu.stage2_tlb.prefetch_faults            0                       # Number of TLB faults due to prefetch
system.cpu0.dstage2_mmu.stage2_tlb.domain_faults            0                       # Number of TLB faults due to domain restrictions
system.cpu0.dstage2_mmu.stage2_tlb.perms_faults            0                       # Number of TLB faults due to permissions restrictions
system.cpu0.dstage2_mmu.stage2_tlb.read_accesses            0                       # DTB read accesses
system.cpu0.dstage2_mmu.stage2_tlb.write_accesses            0                       # DTB write accesses
system.cpu0.dstage2_mmu.stage2_tlb.inst_accesses            0                       # ITB inst accesses
system.cpu0.dstage2_mmu.stage2_tlb.hits             0                       # DTB hits
system.cpu0.dstage2_mmu.stage2_tlb.misses            0                       # DTB misses
system.cpu0.dstage2_mmu.stage2_tlb.accesses            0                       # DTB accesses
system.cpu0.dtb.walker.walks                        0                       # Table walker walks requested
system.cpu0.dtb.walker.walkRequestOrigin_Requested::Data            0                       # Table walker requests started/completed, data/inst
system.cpu0.dtb.walker.walkRequestOrigin_Requested::Inst            0                       # Table walker requests started/completed, data/inst
system.cpu0.dtb.walker.walkRequestOrigin_Requested::total            0                       # Table walker requests started/completed, data/inst
system.cpu0.dtb.walker.walkRequestOrigin_Completed::Data            0                       # Table walker requests started/completed, data/inst
system.cpu0.dtb.walker.walkRequestOrigin_Completed::Inst            0                       # Table walker requests started/completed, data/inst
system.cpu0.dtb.walker.walkRequestOrigin_Completed::total            0                       # Table walker requests started/completed, data/inst
system.cpu0.dtb.walker.walkRequestOrigin::total            0                       # Table walker requests started/completed, data/inst
system.cpu0.dtb.inst_hits                           0                       # ITB inst hits
system.cpu0.dtb.inst_misses                         0                       # ITB inst misses
system.cpu0.dtb.read_hits                           0                       # DTB read hits
system.cpu0.dtb.read_misses                         0                       # DTB read misses
system.cpu0.dtb.write_hits                          0                       # DTB write hits
system.cpu0.dtb.write_misses                        0                       # DTB write misses
system.cpu0.dtb.flush_tlb                           0                       # Number of times complete TLB was flushed
system.cpu0.dtb.flush_tlb_mva                       0                       # Number of times TLB was flushed by MVA
system.cpu0.dtb.flush_tlb_mva_asid                  0                       # Number of times TLB was flushed by MVA & ASID
system.cpu0.dtb.flush_tlb_asid                      0                       # Number of times TLB was flushed by ASID
system.cpu0.dtb.flush_entries                       0                       # Number of entries that have been flushed from TLB
system.cpu0.dtb.align_faults                        0                       # Number of TLB faults due to alignment restrictions
system.cpu0.dtb.prefetch_faults                     0                       # Number of TLB faults due to prefetch
system.cpu0.dtb.domain_faults                       0                       # Number of TLB faults due to domain restrictions
system.cpu0.dtb.perms_faults                        0                       # Number of TLB faults due to permissions restrictions
system.cpu0.dtb.read_accesses                       0                       # DTB read accesses
system.cpu0.dtb.write_accesses                      0                       # DTB write accesses
system.cpu0.dtb.inst_accesses                       0                       # ITB inst accesses
system.cpu0.dtb.hits                                0                       # DTB hits
system.cpu0.dtb.misses                              0                       # DTB misses
system.cpu0.dtb.accesses                            0                       # DTB accesses
system.cpu0.istage2_mmu.stage2_tlb.walker.walks            0                       # Table walker walks requested
system.cpu0.istage2_mmu.stage2_tlb.walker.walkRequestOrigin_Requested::Data            0                       # Table walker requests started/completed, data/inst
system.cpu0.istage2_mmu.stage2_tlb.walker.walkRequestOrigin_Requested::Inst            0                       # Table walker requests started/completed, data/inst
system.cpu0.istage2_mmu.stage2_tlb.walker.walkRequestOrigin_Requested::total            0                       # Table walker requests started/completed, data/inst
system.cpu0.istage2_mmu.stage2_tlb.walker.walkRequestOrigin_Completed::Data            0                       # Table walker requests started/completed, data/inst
system.cpu0.istage2_mmu.stage2_tlb.walker.walkRequestOrigin_Completed::Inst            0                       # Table walker requests started/completed, data/inst
system.cpu0.istage2_mmu.stage2_tlb.walker.walkRequestOrigin_Completed::total            0                       # Table walker requests started/completed, data/inst
system.cpu0.istage2_mmu.stage2_tlb.walker.walkRequestOrigin::total            0                       # Table walker requests started/completed, data/inst
system.cpu0.istage2_mmu.stage2_tlb.inst_hits            0                       # ITB inst hits
system.cpu0.istage2_mmu.stage2_tlb.inst_misses            0                       # ITB inst misses
system.cpu0.istage2_mmu.stage2_tlb.read_hits            0                       # DTB read hits
system.cpu0.istage2_mmu.stage2_tlb.read_misses            0                       # DTB read misses
system.cpu0.istage2_mmu.stage2_tlb.write_hits            0                       # DTB write hits
system.cpu0.istage2_mmu.stage2_tlb.write_misses            0                       # DTB write misses
system.cpu0.istage2_mmu.stage2_tlb.flush_tlb            0                       # Number of times complete TLB was flushed
system.cpu0.istage2_mmu.stage2_tlb.flush_tlb_mva            0                       # Number of times TLB was flushed by MVA
system.cpu0.istage2_mmu.stage2_tlb.flush_tlb_mva_asid            0                       # Number of times TLB was flushed by MVA & ASID
system.cpu0.istage2_mmu.stage2_tlb.flush_tlb_asid            0                       # Number of times TLB was flushed by ASID
system.cpu0.istage2_mmu.stage2_tlb.flush_entries            0                       # Number of entries that have been flushed from TLB
system.cpu0.istage2_mmu.stage2_tlb.align_faults            0                       # Number of TLB faults due to alignment restrictions
system.cpu0.istage2_mmu.stage2_tlb.prefetch_faults            0                       # Number of TLB faults due to prefetch
system.cpu0.istage2_mmu.stage2_tlb.domain_faults            0                       # Number of TLB faults due to domain restrictions
system.cpu0.istage2_mmu.stage2_tlb.perms_faults            0                       # Number of TLB faults due to permissions restrictions
system.cpu0.istage2_mmu.stage2_tlb.read_accesses            0                       # DTB read accesses
system.cpu0.istage2_mmu.stage2_tlb.write_accesses            0                       # DTB write accesses
system.cpu0.istage2_mmu.stage2_tlb.inst_accesses            0                       # ITB inst accesses
system.cpu0.istage2_mmu.stage2_tlb.hits             0                       # DTB hits
system.cpu0.istage2_mmu.stage2_tlb.misses            0                       # DTB misses
system.cpu0.istage2_mmu.stage2_tlb.accesses            0                       # DTB accesses
system.cpu0.itb.walker.walks                        0                       # Table walker walks requested
system.cpu0.itb.walker.walkRequestOrigin_Requested::Data            0                       # Table walker requests started/completed, data/inst
system.cpu0.itb.walker.walkRequestOrigin_Requested::Inst            0                       # Table walker requests started/completed, data/inst
system.cpu0.itb.walker.walkRequestOrigin_Requested::total            0                       # Table walker requests started/completed, data/inst
system.cpu0.itb.walker.walkRequestOrigin_Completed::Data            0                       # Table walker requests started/completed, data/inst
system.cpu0.itb.walker.walkRequestOrigin_Completed::Inst            0                       # Table walker requests started/completed, data/inst
system.cpu0.itb.walker.walkRequestOrigin_Completed::total            0                       # Table walker requests started/completed, data/inst
system.cpu0.itb.walker.walkRequestOrigin::total            0                       # Table walker requests started/completed, data/inst
system.cpu0.itb.inst_hits                           0                       # ITB inst hits
system.cpu0.itb.inst_misses                         0                       # ITB inst misses
system.cpu0.itb.read_hits                           0                       # DTB read hits
system.cpu0.itb.read_misses                         0                       # DTB read misses
system.cpu0.itb.write_hits                          0                       # DTB write hits
system.cpu0.itb.write_misses                        0                       # DTB write misses
system.cpu0.itb.flush_tlb                           0                       # Number of times complete TLB was flushed
system.cpu0.itb.flush_tlb_mva                       0                       # Number of times TLB was flushed by MVA
system.cpu0.itb.flush_tlb_mva_asid                  0                       # Number of times TLB was flushed by MVA & ASID
system.cpu0.itb.flush_tlb_asid                      0                       # Number of times TLB was flushed by ASID
system.cpu0.itb.flush_entries                       0                       # Number of entries that have been flushed from TLB
system.cpu0.itb.align_faults                        0                       # Number of TLB faults due to alignment restrictions
system.cpu0.itb.prefetch_faults                     0                       # Number of TLB faults due to prefetch
system.cpu0.itb.domain_faults                       0                       # Number of TLB faults due to domain restrictions
system.cpu0.itb.perms_faults                        0                       # Number of TLB faults due to permissions restrictions
system.cpu0.itb.read_accesses                       0                       # DTB read accesses
system.cpu0.itb.write_accesses                      0                       # DTB write accesses
system.cpu0.itb.inst_accesses                       0                       # ITB inst accesses
system.cpu0.itb.hits                                0                       # DTB hits
system.cpu0.itb.misses                              0                       # DTB misses
system.cpu0.itb.accesses                            0                       # DTB accesses
system.cpu0.workload.num_syscalls                 117                       # Number of system calls
system.cpu0.numCycles                          513226                       # number of cpu cycles simulated
system.cpu0.numWorkItemsStarted                     0                       # number of work items this cpu started
system.cpu0.numWorkItemsCompleted                   0                       # number of work items this cpu completed
system.cpu0.fetch.icacheStallCycles            165246                       # Number of cycles fetch is stalled on an Icache miss
system.cpu0.fetch.Insts                       1188308                       # Number of instructions fetch has processed
system.cpu0.fetch.Branches                      88319                       # Number of branches that fetch encountered
system.cpu0.fetch.predictedBranches             84032                       # Number of branches that fetch has predicted taken
system.cpu0.fetch.Cycles                       303934                       # Number of cycles fetch has run and was not squashing or blocked
system.cpu0.fetch.SquashCycles                   4289                       # Number of cycles fetch has spent squashing
system.cpu0.fetch.MiscStallCycles                   2                       # Number of cycles fetch has spent waiting on interrupts, or bad addresses, or out of MSHRs
system.cpu0.fetch.PendingTrapStallCycles            4                       # Number of stall cycles due to pending traps
system.cpu0.fetch.IcacheWaitRetryStallCycles            2                       # Number of stall cycles due to full MSHR
system.cpu0.fetch.CacheLines                   151759                       # Number of cache lines fetched
system.cpu0.fetch.IcacheSquashes                 1058                       # Number of outstanding Icache misses that were squashed
system.cpu0.fetch.rateDist::samples            471332                       # Number of instructions fetched each cycle (Total)
system.cpu0.fetch.rateDist::mean             2.590976                       # Number of instructions fetched each cycle (Total)
system.cpu0.fetch.rateDist::stdev            3.507993                       # Number of instructions fetched each cycle (Total)
system.cpu0.fetch.rateDist::underflows              0      0.00%      0.00% # Number of instructions fetched each cycle (Total)
system.cpu0.fetch.rateDist::0                  295892     62.78%     62.78% # Number of instructions fetched each cycle (Total)
system.cpu0.fetch.rateDist::1                    3727      0.79%     63.57% # Number of instructions fetched each cycle (Total)
system.cpu0.fetch.rateDist::2                    5908      1.25%     64.82% # Number of instructions fetched each cycle (Total)
system.cpu0.fetch.rateDist::3                    1289      0.27%     65.10% # Number of instructions fetched each cycle (Total)
system.cpu0.fetch.rateDist::4                    7731      1.64%     66.74% # Number of instructions fetched each cycle (Total)
system.cpu0.fetch.rateDist::5                    1325      0.28%     67.02% # Number of instructions fetched each cycle (Total)
system.cpu0.fetch.rateDist::6                    5274      1.12%     68.14% # Number of instructions fetched each cycle (Total)
system.cpu0.fetch.rateDist::7                   68881     14.61%     82.75% # Number of instructions fetched each cycle (Total)
system.cpu0.fetch.rateDist::8                   81305     17.25%    100.00% # Number of instructions fetched each cycle (Total)
system.cpu0.fetch.rateDist::overflows               0      0.00%    100.00% # Number of instructions fetched each cycle (Total)
system.cpu0.fetch.rateDist::min_value               0                       # Number of instructions fetched each cycle (Total)
system.cpu0.fetch.rateDist::max_value               8                       # Number of instructions fetched each cycle (Total)
system.cpu0.fetch.rateDist::total              471332                       # Number of instructions fetched each cycle (Total)
system.cpu0.fetch.branchRate                 0.172086                       # Number of branch fetches per cycle
system.cpu0.fetch.rate                       2.315370                       # Number of inst fetches per cycle
system.cpu0.decode.IdleCycles                  146454                       # Number of cycles decode is idle
system.cpu0.decode.BlockedCycles               157286                       # Number of cycles decode is blocked
system.cpu0.decode.RunCycles                   153848                       # Number of cycles decode is running
system.cpu0.decode.UnblockCycles                11903                       # Number of cycles decode is unblocking
system.cpu0.decode.SquashCycles                  1841                       # Number of cycles decode is squashing
system.cpu0.decode.BranchResolved                 880                       # Number of times decode resolved a branch
system.cpu0.decode.BranchMispred                  315                       # Number of times decode detected a branch misprediction
system.cpu0.decode.DecodedInsts               1209068                       # Number of instructions handled by decode
system.cpu0.decode.SquashedInsts                 1150                       # Number of squashed instructions handled by decode
system.cpu0.rename.SquashCycles                  1841                       # Number of cycles rename is squashing
system.cpu0.rename.IdleCycles                  152033                       # Number of cycles rename is idle
system.cpu0.rename.BlockCycles                   5558                       # Number of cycles rename is blocking
system.cpu0.rename.serializeStallCycles          8563                       # count of cycles rename stalled for serializing inst
system.cpu0.rename.RunCycles                   159981                       # Number of cycles rename is running
system.cpu0.rename.UnblockCycles               143356                       # Number of cycles rename is unblocking
system.cpu0.rename.RenamedInsts               1202595                       # Number of instructions processed by rename
system.cpu0.rename.ROBFullEvents                    1                       # Number of times rename has blocked due to ROB full
system.cpu0.rename.IQFullEvents                  4525                       # Number of times rename has blocked due to IQ full
system.cpu0.rename.LQFullEvents                 13310                       # Number of times rename has blocked due to LQ full
system.cpu0.rename.SQFullEvents                121948                       # Number of times rename has blocked due to SQ full
system.cpu0.rename.RenamedOperands            1542131                       # Number of destination operands rename has renamed
system.cpu0.rename.RenameLookups              5956958                       # Number of register rename lookups that rename has made
system.cpu0.rename.int_rename_lookups         1984307                       # Number of integer rename lookups
system.cpu0.rename.fp_rename_lookups               22                       # Number of floating rename lookups
system.cpu0.rename.CommittedMaps              1478746                       # Number of HB maps that are committed
system.cpu0.rename.UndoneMaps                   63385                       # Number of HB maps that are undone due to squashing
system.cpu0.rename.serializingInsts               134                       # count of serializing insts renamed
system.cpu0.rename.tempSerializingInsts           135                       # count of temporary serializing insts renamed
system.cpu0.rename.skidInsts                    69746                       # count of insts added to the skid buffer
system.cpu0.memDep0.insertedLoads              279631                       # Number of loads inserted to the mem dependence unit.
system.cpu0.memDep0.insertedStores              49725                       # Number of stores inserted to the mem dependence unit.
system.cpu0.memDep0.conflictingLoads             2622                       # Number of conflicting loads.
system.cpu0.memDep0.conflictingStores             517                       # Number of conflicting stores.
system.cpu0.iq.iqInstsAdded                   1191013                       # Number of instructions added to the IQ (excludes non-spec)
system.cpu0.iq.iqNonSpecInstsAdded                274                       # Number of non-speculative instructions added to the IQ
system.cpu0.iq.iqInstsIssued                  1165560                       # Number of instructions issued
system.cpu0.iq.iqSquashedInstsIssued             1858                       # Number of squashed instructions issued
system.cpu0.iq.iqSquashedInstsExamined          40417                       # Number of squashed instructions iterated over during squash; mainly for profiling
system.cpu0.iq.iqSquashedOperandsExamined       150767                       # Number of squashed operands that are examined and possibly removed from graph
system.cpu0.iq.iqSquashedNonSpecRemoved            85                       # Number of squashed non-spec instructions that were removed
system.cpu0.iq.issued_per_cycle::samples       471332                       # Number of insts issued each cycle
system.cpu0.iq.issued_per_cycle::mean        2.472907                       # Number of insts issued each cycle
system.cpu0.iq.issued_per_cycle::stdev       1.800857                       # Number of insts issued each cycle
system.cpu0.iq.issued_per_cycle::underflows            0      0.00%      0.00% # Number of insts issued each cycle
system.cpu0.iq.issued_per_cycle::0             142819     30.30%     30.30% # Number of insts issued each cycle
system.cpu0.iq.issued_per_cycle::1              26813      5.69%     35.99% # Number of insts issued each cycle
system.cpu0.iq.issued_per_cycle::2              16623      3.53%     39.52% # Number of insts issued each cycle
system.cpu0.iq.issued_per_cycle::3              34807      7.38%     46.90% # Number of insts issued each cycle
system.cpu0.iq.issued_per_cycle::4             250270     53.10%    100.00% # Number of insts issued each cycle
system.cpu0.iq.issued_per_cycle::overflows            0      0.00%    100.00% # Number of insts issued each cycle
system.cpu0.iq.issued_per_cycle::min_value            0                       # Number of insts issued each cycle
system.cpu0.iq.issued_per_cycle::max_value            4                       # Number of insts issued each cycle
system.cpu0.iq.issued_per_cycle::total         471332                       # Number of insts issued each cycle
system.cpu0.iq.fu_full::No_OpClass                  0      0.00%      0.00% # attempts to use FU when none available
system.cpu0.iq.fu_full::IntAlu                      0      0.00%      0.00% # attempts to use FU when none available
system.cpu0.iq.fu_full::IntMult                  5043    100.00%    100.00% # attempts to use FU when none available
system.cpu0.iq.fu_full::IntDiv                      0      0.00%    100.00% # attempts to use FU when none available
system.cpu0.iq.fu_full::FloatAdd                    0      0.00%    100.00% # attempts to use FU when none available
system.cpu0.iq.fu_full::FloatCmp                    0      0.00%    100.00% # attempts to use FU when none available
system.cpu0.iq.fu_full::FloatCvt                    0      0.00%    100.00% # attempts to use FU when none available
system.cpu0.iq.fu_full::FloatMult                   0      0.00%    100.00% # attempts to use FU when none available
system.cpu0.iq.fu_full::FloatDiv                    0      0.00%    100.00% # attempts to use FU when none available
system.cpu0.iq.fu_full::FloatSqrt                   0      0.00%    100.00% # attempts to use FU when none available
system.cpu0.iq.fu_full::SimdAdd                     0      0.00%    100.00% # attempts to use FU when none available
system.cpu0.iq.fu_full::SimdAddAcc                  0      0.00%    100.00% # attempts to use FU when none available
system.cpu0.iq.fu_full::SimdAlu                     0      0.00%    100.00% # attempts to use FU when none available
system.cpu0.iq.fu_full::SimdCmp                     0      0.00%    100.00% # attempts to use FU when none available
system.cpu0.iq.fu_full::SimdCvt                     0      0.00%    100.00% # attempts to use FU when none available
system.cpu0.iq.fu_full::SimdMisc                    0      0.00%    100.00% # attempts to use FU when none available
system.cpu0.iq.fu_full::SimdMult                    0      0.00%    100.00% # attempts to use FU when none available
system.cpu0.iq.fu_full::SimdMultAcc                 0      0.00%    100.00% # attempts to use FU when none available
system.cpu0.iq.fu_full::SimdShift                   0      0.00%    100.00% # attempts to use FU when none available
system.cpu0.iq.fu_full::SimdShiftAcc                0      0.00%    100.00% # attempts to use FU when none available
system.cpu0.iq.fu_full::SimdSqrt                    0      0.00%    100.00% # attempts to use FU when none available
system.cpu0.iq.fu_full::SimdFloatAdd                0      0.00%    100.00% # attempts to use FU when none available
system.cpu0.iq.fu_full::SimdFloatAlu                0      0.00%    100.00% # attempts to use FU when none available
system.cpu0.iq.fu_full::SimdFloatCmp                0      0.00%    100.00% # attempts to use FU when none available
system.cpu0.iq.fu_full::SimdFloatCvt                0      0.00%    100.00% # attempts to use FU when none available
system.cpu0.iq.fu_full::SimdFloatDiv                0      0.00%    100.00% # attempts to use FU when none available
system.cpu0.iq.fu_full::SimdFloatMisc               0      0.00%    100.00% # attempts to use FU when none available
system.cpu0.iq.fu_full::SimdFloatMult               0      0.00%    100.00% # attempts to use FU when none available
system.cpu0.iq.fu_full::SimdFloatMultAcc            0      0.00%    100.00% # attempts to use FU when none available
system.cpu0.iq.fu_full::SimdFloatSqrt               0      0.00%    100.00% # attempts to use FU when none available
system.cpu0.iq.fu_full::MemRead                     0      0.00%    100.00% # attempts to use FU when none available
system.cpu0.iq.fu_full::MemWrite                    0      0.00%    100.00% # attempts to use FU when none available
system.cpu0.iq.fu_full::IprAccess                   0      0.00%    100.00% # attempts to use FU when none available
system.cpu0.iq.fu_full::InstPrefetch                0      0.00%    100.00% # attempts to use FU when none available
system.cpu0.iq.FU_type_0::No_OpClass                0      0.00%      0.00% # Type of FU issued
system.cpu0.iq.FU_type_0::IntAlu               636554     54.61%     54.61% # Type of FU issued
system.cpu0.iq.FU_type_0::IntMult              205026     17.59%     72.20% # Type of FU issued
system.cpu0.iq.FU_type_0::IntDiv                    0      0.00%     72.20% # Type of FU issued
system.cpu0.iq.FU_type_0::FloatAdd                  0      0.00%     72.20% # Type of FU issued
system.cpu0.iq.FU_type_0::FloatCmp                  0      0.00%     72.20% # Type of FU issued
system.cpu0.iq.FU_type_0::FloatCvt                  0      0.00%     72.20% # Type of FU issued
system.cpu0.iq.FU_type_0::FloatMult                 0      0.00%     72.20% # Type of FU issued
system.cpu0.iq.FU_type_0::FloatDiv                  0      0.00%     72.20% # Type of FU issued
system.cpu0.iq.FU_type_0::FloatSqrt                 0      0.00%     72.20% # Type of FU issued
system.cpu0.iq.FU_type_0::SimdAdd                   0      0.00%     72.20% # Type of FU issued
system.cpu0.iq.FU_type_0::SimdAddAcc                0      0.00%     72.20% # Type of FU issued
system.cpu0.iq.FU_type_0::SimdAlu                   0      0.00%     72.20% # Type of FU issued
system.cpu0.iq.FU_type_0::SimdCmp                   0      0.00%     72.20% # Type of FU issued
system.cpu0.iq.FU_type_0::SimdCvt                   0      0.00%     72.20% # Type of FU issued
system.cpu0.iq.FU_type_0::SimdMisc                  0      0.00%     72.20% # Type of FU issued
system.cpu0.iq.FU_type_0::SimdMult                  0      0.00%     72.20% # Type of FU issued
system.cpu0.iq.FU_type_0::SimdMultAcc               0      0.00%     72.20% # Type of FU issued
system.cpu0.iq.FU_type_0::SimdShift                 0      0.00%     72.20% # Type of FU issued
system.cpu0.iq.FU_type_0::SimdShiftAcc              0      0.00%     72.20% # Type of FU issued
system.cpu0.iq.FU_type_0::SimdSqrt                  0      0.00%     72.20% # Type of FU issued
system.cpu0.iq.FU_type_0::SimdFloatAdd              0      0.00%     72.20% # Type of FU issued
system.cpu0.iq.FU_type_0::SimdFloatAlu              0      0.00%     72.20% # Type of FU issued
system.cpu0.iq.FU_type_0::SimdFloatCmp              0      0.00%     72.20% # Type of FU issued
system.cpu0.iq.FU_type_0::SimdFloatCvt              0      0.00%     72.20% # Type of FU issued
system.cpu0.iq.FU_type_0::SimdFloatDiv              0      0.00%     72.20% # Type of FU issued
system.cpu0.iq.FU_type_0::SimdFloatMisc             3      0.00%     72.20% # Type of FU issued
system.cpu0.iq.FU_type_0::SimdFloatMult             0      0.00%     72.20% # Type of FU issued
system.cpu0.iq.FU_type_0::SimdFloatMultAcc            0      0.00%     72.20% # Type of FU issued
system.cpu0.iq.FU_type_0::SimdFloatSqrt             0      0.00%     72.20% # Type of FU issued
system.cpu0.iq.FU_type_0::MemRead              275559     23.64%     95.85% # Type of FU issued
system.cpu0.iq.FU_type_0::MemWrite              48418      4.15%    100.00% # Type of FU issued
system.cpu0.iq.FU_type_0::IprAccess                 0      0.00%    100.00% # Type of FU issued
system.cpu0.iq.FU_type_0::InstPrefetch              0      0.00%    100.00% # Type of FU issued
system.cpu0.iq.FU_type_0::total               1165560                       # Type of FU issued
system.cpu0.iq.rate                          2.271046                       # Inst issue rate
system.cpu0.iq.fu_busy_cnt                       5043                       # FU busy when requested
system.cpu0.iq.fu_busy_rate                  0.004327                       # FU busy rate (busy events/executed inst)
system.cpu0.iq.int_inst_queue_reads           2809297                       # Number of integer instruction queue reads
system.cpu0.iq.int_inst_queue_writes          1231730                       # Number of integer instruction queue writes
system.cpu0.iq.int_inst_queue_wakeup_accesses      1159562                       # Number of integer instruction queue wakeup accesses
system.cpu0.iq.fp_inst_queue_reads                 56                       # Number of floating instruction queue reads
system.cpu0.iq.fp_inst_queue_writes                28                       # Number of floating instruction queue writes
system.cpu0.iq.fp_inst_queue_wakeup_accesses           28                       # Number of floating instruction queue wakeup accesses
system.cpu0.iq.int_alu_accesses               1170575                       # Number of integer alu accesses
system.cpu0.iq.fp_alu_accesses                     28                       # Number of floating point alu accesses
system.cpu0.iew.lsq.thread0.forwLoads             132                       # Number of loads that had data forwarded from stores
system.cpu0.iew.lsq.thread0.invAddrLoads            0                       # Number of loads ignored due to an invalid address
system.cpu0.iew.lsq.thread0.squashedLoads        10344                       # Number of loads squashed
system.cpu0.iew.lsq.thread0.ignoredResponses            3                       # Number of memory responses ignored because the instruction is squashed
system.cpu0.iew.lsq.thread0.memOrderViolation           60                       # Number of memory ordering violations
system.cpu0.iew.lsq.thread0.squashedStores         1861                       # Number of stores squashed
system.cpu0.iew.lsq.thread0.invAddrSwpfs            0                       # Number of software prefetches ignored due to an invalid address
system.cpu0.iew.lsq.thread0.blockedLoads            0                       # Number of blocked loads due to partial load-store forwarding
system.cpu0.iew.lsq.thread0.rescheduledLoads          107                       # Number of loads that were rescheduled
system.cpu0.iew.lsq.thread0.cacheBlocked           73                       # Number of times an access to memory failed due to the cache being blocked
system.cpu0.iew.iewIdleCycles                       0                       # Number of cycles IEW is idle
system.cpu0.iew.iewSquashCycles                  1841                       # Number of cycles IEW is squashing
system.cpu0.iew.iewBlockCycles                   4495                       # Number of cycles IEW is blocking
system.cpu0.iew.iewUnblockCycles                  549                       # Number of cycles IEW is unblocking
system.cpu0.iew.iewDispatchedInsts            1191294                       # Number of instructions dispatched to IQ
system.cpu0.iew.iewDispSquashedInsts              213                       # Number of squashed instructions skipped by dispatch
system.cpu0.iew.iewDispLoadInsts               279631                       # Number of dispatched load instructions
system.cpu0.iew.iewDispStoreInsts               49725                       # Number of dispatched store instructions
system.cpu0.iew.iewDispNonSpecInsts               126                       # Number of dispatched non-speculative instructions
system.cpu0.iew.iewIQFullEvents                    34                       # Number of times the IQ has become full, causing a stall
system.cpu0.iew.iewLSQFullEvents                  508                       # Number of times the LSQ has become full, causing a stall
system.cpu0.iew.memOrderViolationEvents            60                       # Number of memory order violations
system.cpu0.iew.predictedTakenIncorrect          1278                       # Number of branches that were predicted taken incorrectly
system.cpu0.iew.predictedNotTakenIncorrect          560                       # Number of branches that were predicted not taken incorrectly
system.cpu0.iew.branchMispredicts                1838                       # Number of branch mispredicts detected at execute
system.cpu0.iew.iewExecutedInsts              1162748                       # Number of executed instructions
system.cpu0.iew.iewExecLoadInsts               273599                       # Number of load instructions executed
system.cpu0.iew.iewExecSquashedInsts             2812                       # Number of squashed instructions skipped in execute
system.cpu0.iew.exec_swp                            0                       # number of swp insts executed
system.cpu0.iew.exec_nop                            7                       # number of nop insts executed
system.cpu0.iew.exec_refs                      321880                       # number of memory reference insts executed
system.cpu0.iew.exec_branches                   81897                       # Number of branches executed
system.cpu0.iew.exec_stores                     48281                       # Number of stores executed
system.cpu0.iew.exec_rate                    2.265567                       # Inst execution rate
system.cpu0.iew.wb_sent                       1160267                       # cumulative count of insts sent to commit
system.cpu0.iew.wb_count                      1159590                       # cumulative count of insts written-back
system.cpu0.iew.wb_producers                   982390                       # num instructions producing a value
system.cpu0.iew.wb_consumers                  1663854                       # num instructions consuming a value
system.cpu0.iew.wb_penalized                        0                       # number of instrctions required to write to 'other' IQ
system.cpu0.iew.wb_rate                      2.259414                       # insts written-back per cycle
system.cpu0.iew.wb_fanout                    0.590430                       # average fanout of values written-back
system.cpu0.iew.wb_penalized_rate                   0                       # fraction of instructions written-back that wrote to 'other' IQ
system.cpu0.commit.commitSquashedInsts          40423                       # The number of squashed insts skipped by commit
system.cpu0.commit.commitNonSpecStalls            189                       # The number of times commit has been forced to stall to communicate backwards
system.cpu0.commit.branchMispredicts             1782                       # The number of times a branch was mispredicted
system.cpu0.commit.committed_per_cycle::samples       465668                       # Number of insts commited each cycle
system.cpu0.commit.committed_per_cycle::mean     2.471439                       # Number of insts commited each cycle
system.cpu0.commit.committed_per_cycle::stdev     3.028292                       # Number of insts commited each cycle
system.cpu0.commit.committed_per_cycle::underflows            0      0.00%      0.00% # Number of insts commited each cycle
system.cpu0.commit.committed_per_cycle::0       188740     40.53%     40.53% # Number of insts commited each cycle
system.cpu0.commit.committed_per_cycle::1       100612     21.61%     62.14% # Number of insts commited each cycle
system.cpu0.commit.committed_per_cycle::2        18622      4.00%     66.14% # Number of insts commited each cycle
system.cpu0.commit.committed_per_cycle::3         7109      1.53%     67.66% # Number of insts commited each cycle
system.cpu0.commit.committed_per_cycle::4        13862      2.98%     70.64% # Number of insts commited each cycle
system.cpu0.commit.committed_per_cycle::5        38777      8.33%     78.97% # Number of insts commited each cycle
system.cpu0.commit.committed_per_cycle::6        17048      3.66%     82.63% # Number of insts commited each cycle
system.cpu0.commit.committed_per_cycle::7         7118      1.53%     84.16% # Number of insts commited each cycle
system.cpu0.commit.committed_per_cycle::8        73780     15.84%    100.00% # Number of insts commited each cycle
system.cpu0.commit.committed_per_cycle::overflows            0      0.00%    100.00% # Number of insts commited each cycle
system.cpu0.commit.committed_per_cycle::min_value            0                       # Number of insts commited each cycle
system.cpu0.commit.committed_per_cycle::max_value            8                       # Number of insts commited each cycle
system.cpu0.commit.committed_per_cycle::total       465668                       # Number of insts commited each cycle
system.cpu0.commit.committedInsts             1121439                       # Number of instructions committed
system.cpu0.commit.committedOps               1150870                       # Number of ops (including micro ops) committed
system.cpu0.commit.swp_count                        0                       # Number of s/w prefetches committed
system.cpu0.commit.refs                        317151                       # Number of memory references committed
system.cpu0.commit.loads                       269287                       # Number of loads committed
system.cpu0.commit.membars                        113                       # Number of memory barriers committed
system.cpu0.commit.branches                     81045                       # Number of branches committed
system.cpu0.commit.fp_insts                        28                       # Number of committed floating point instructions.
system.cpu0.commit.int_insts                  1070328                       # Number of committed integer instructions.
system.cpu0.commit.function_calls                 290                       # Number of function calls committed.
system.cpu0.commit.op_class_0::No_OpClass            0      0.00%      0.00% # Class of committed instruction
system.cpu0.commit.op_class_0::IntAlu          628890     54.64%     54.64% # Class of committed instruction
system.cpu0.commit.op_class_0::IntMult         204826     17.80%     72.44% # Class of committed instruction
system.cpu0.commit.op_class_0::IntDiv               0      0.00%     72.44% # Class of committed instruction
system.cpu0.commit.op_class_0::FloatAdd             0      0.00%     72.44% # Class of committed instruction
system.cpu0.commit.op_class_0::FloatCmp             0      0.00%     72.44% # Class of committed instruction
system.cpu0.commit.op_class_0::FloatCvt             0      0.00%     72.44% # Class of committed instruction
system.cpu0.commit.op_class_0::FloatMult            0      0.00%     72.44% # Class of committed instruction
system.cpu0.commit.op_class_0::FloatDiv             0      0.00%     72.44% # Class of committed instruction
system.cpu0.commit.op_class_0::FloatSqrt            0      0.00%     72.44% # Class of committed instruction
system.cpu0.commit.op_class_0::SimdAdd              0      0.00%     72.44% # Class of committed instruction
system.cpu0.commit.op_class_0::SimdAddAcc            0      0.00%     72.44% # Class of committed instruction
system.cpu0.commit.op_class_0::SimdAlu              0      0.00%     72.44% # Class of committed instruction
system.cpu0.commit.op_class_0::SimdCmp              0      0.00%     72.44% # Class of committed instruction
system.cpu0.commit.op_class_0::SimdCvt              0      0.00%     72.44% # Class of committed instruction
system.cpu0.commit.op_class_0::SimdMisc             0      0.00%     72.44% # Class of committed instruction
system.cpu0.commit.op_class_0::SimdMult             0      0.00%     72.44% # Class of committed instruction
system.cpu0.commit.op_class_0::SimdMultAcc            0      0.00%     72.44% # Class of committed instruction
system.cpu0.commit.op_class_0::SimdShift            0      0.00%     72.44% # Class of committed instruction
system.cpu0.commit.op_class_0::SimdShiftAcc            0      0.00%     72.44% # Class of committed instruction
system.cpu0.commit.op_class_0::SimdSqrt             0      0.00%     72.44% # Class of committed instruction
system.cpu0.commit.op_class_0::SimdFloatAdd            0      0.00%     72.44% # Class of committed instruction
system.cpu0.commit.op_class_0::SimdFloatAlu            0      0.00%     72.44% # Class of committed instruction
system.cpu0.commit.op_class_0::SimdFloatCmp            0      0.00%     72.44% # Class of committed instruction
system.cpu0.commit.op_class_0::SimdFloatCvt            0      0.00%     72.44% # Class of committed instruction
system.cpu0.commit.op_class_0::SimdFloatDiv            0      0.00%     72.44% # Class of committed instruction
system.cpu0.commit.op_class_0::SimdFloatMisc            3      0.00%     72.44% # Class of committed instruction
system.cpu0.commit.op_class_0::SimdFloatMult            0      0.00%     72.44% # Class of committed instruction
system.cpu0.commit.op_class_0::SimdFloatMultAcc            0      0.00%     72.44% # Class of committed instruction
system.cpu0.commit.op_class_0::SimdFloatSqrt            0      0.00%     72.44% # Class of committed instruction
system.cpu0.commit.op_class_0::MemRead         269287     23.40%     95.84% # Class of committed instruction
system.cpu0.commit.op_class_0::MemWrite         47864      4.16%    100.00% # Class of committed instruction
[...]
system.l2.overall_mshr_miss_latency::cpu0.data    110779750                       # number of overall MSHR miss cycles
system.l2.overall_mshr_miss_latency::cpu1.inst      1160750                       # number of overall MSHR miss cycles
system.l2.overall_mshr_miss_latency::cpu1.data       522750                       # number of overall MSHR miss cycles
system.l2.overall_mshr_miss_latency::cpu2.inst       169750                       # number of overall MSHR miss cycles
system.l2.overall_mshr_miss_latency::cpu2.data       391250                       # number of overall MSHR miss cycles
system.l2.overall_mshr_miss_latency::cpu3.inst       328500                       # number of overall MSHR miss cycles
system.l2.overall_mshr_miss_latency::cpu3.data       354250                       # number of overall MSHR miss cycles
system.l2.overall_mshr_miss_latency::total    147579000                       # number of overall MSHR miss cycles
system.l2.ReadReq_mshr_miss_rate::cpu0.inst     0.839344                       # mshr miss rate for ReadReq accesses
system.l2.ReadReq_mshr_miss_rate::cpu0.data     0.059655                       # mshr miss rate for ReadReq accesses
system.l2.ReadReq_mshr_miss_rate::cpu1.inst     0.326923                       # mshr miss rate for ReadReq accesses
system.l2.ReadReq_mshr_miss_rate::cpu1.data     0.010753                       # mshr miss rate for ReadReq accesses
system.l2.ReadReq_mshr_miss_rate::cpu2.inst     0.056604                       # mshr miss rate for ReadReq accesses
system.l2.ReadReq_mshr_miss_rate::cpu3.inst     0.092593                       # mshr miss rate for ReadReq accesses
system.l2.ReadReq_mshr_miss_rate::cpu3.data     0.013889                       # mshr miss rate for ReadReq accesses
system.l2.ReadReq_mshr_miss_rate::total      0.214098                       # mshr miss rate for ReadReq accesses
system.l2.UpgradeReq_mshr_miss_rate::cpu0.data     0.836364                       # mshr miss rate for UpgradeReq accesses
system.l2.UpgradeReq_mshr_miss_rate::total     0.836364                       # mshr miss rate for UpgradeReq accesses
system.l2.SCUpgradeReq_mshr_miss_rate::cpu1.data            1                       # mshr miss rate for SCUpgradeReq accesses
system.l2.SCUpgradeReq_mshr_miss_rate::total     0.500000                       # mshr miss rate for SCUpgradeReq accesses
system.l2.ReadExReq_mshr_miss_rate::cpu0.data     0.478982                       # mshr miss rate for ReadExReq accesses
system.l2.ReadExReq_mshr_miss_rate::cpu1.data     0.003933                       # mshr miss rate for ReadExReq accesses
system.l2.ReadExReq_mshr_miss_rate::cpu2.data     0.003933                       # mshr miss rate for ReadExReq accesses
system.l2.ReadExReq_mshr_miss_rate::cpu3.data     0.003941                       # mshr miss rate for ReadExReq accesses
system.l2.ReadExReq_mshr_miss_rate::total     0.257715                       # mshr miss rate for ReadExReq accesses
system.l2.demand_mshr_miss_rate::cpu0.inst     0.839344                       # mshr miss rate for demand accesses
system.l2.demand_mshr_miss_rate::cpu0.data     0.330806                       # mshr miss rate for demand accesses
system.l2.demand_mshr_miss_rate::cpu1.inst     0.326923                       # mshr miss rate for demand accesses
system.l2.demand_mshr_miss_rate::cpu1.data     0.004505                       # mshr miss rate for demand accesses
system.l2.demand_mshr_miss_rate::cpu2.inst     0.056604                       # mshr miss rate for demand accesses
system.l2.demand_mshr_miss_rate::cpu2.data     0.003273                       # mshr miss rate for demand accesses
system.l2.demand_mshr_miss_rate::cpu3.inst     0.092593                       # mshr miss rate for demand accesses
system.l2.demand_mshr_miss_rate::cpu3.data     0.004600                       # mshr miss rate for demand accesses
system.l2.demand_mshr_miss_rate::total       0.243852                       # mshr miss rate for demand accesses
system.l2.overall_mshr_miss_rate::cpu0.inst     0.839344                       # mshr miss rate for overall accesses
system.l2.overall_mshr_miss_rate::cpu0.data     0.330806                       # mshr miss rate for overall accesses
system.l2.overall_mshr_miss_rate::cpu1.inst     0.326923                       # mshr miss rate for overall accesses
system.l2.overall_mshr_miss_rate::cpu1.data     0.004505                       # mshr miss rate for overall accesses
system.l2.overall_mshr_miss_rate::cpu2.inst     0.056604                       # mshr miss rate for overall accesses
system.l2.overall_mshr_miss_rate::cpu2.data     0.003273                       # mshr miss rate for overall accesses
system.l2.overall_mshr_miss_rate::cpu3.inst     0.092593                       # mshr miss rate for overall accesses
system.l2.overall_mshr_miss_rate::cpu3.data     0.004600                       # mshr miss rate for overall accesses
system.l2.overall_mshr_miss_rate::total      0.243852                       # mshr miss rate for overall accesses
system.l2.ReadReq_avg_mshr_miss_latency::cpu0.inst 66156.250000                       # average ReadReq mshr miss latency
system.l2.ReadReq_avg_mshr_miss_latency::cpu0.data 73254.385965                       # average ReadReq mshr miss latency
system.l2.ReadReq_avg_mshr_miss_latency::cpu1.inst 68279.411765                       # average ReadReq mshr miss latency
system.l2.ReadReq_avg_mshr_miss_latency::cpu1.data        70000                       # average ReadReq mshr miss latency
system.l2.ReadReq_avg_mshr_miss_latency::cpu2.inst 56583.333333                       # average ReadReq mshr miss latency
system.l2.ReadReq_avg_mshr_miss_latency::cpu3.inst        65700                       # average ReadReq mshr miss latency
system.l2.ReadReq_avg_mshr_miss_latency::cpu3.data        63500                       # average ReadReq mshr miss latency
system.l2.ReadReq_avg_mshr_miss_latency::total 67405.053599                       # average ReadReq mshr miss latency
system.l2.UpgradeReq_avg_mshr_miss_latency::cpu0.data 17761.869565                       # average UpgradeReq mshr miss latency
system.l2.UpgradeReq_avg_mshr_miss_latency::total 17761.869565                       # average UpgradeReq mshr miss latency
system.l2.SCUpgradeReq_avg_mshr_miss_latency::cpu1.data        17501                       # average SCUpgradeReq mshr miss latency
system.l2.SCUpgradeReq_avg_mshr_miss_latency::total        17501                       # average SCUpgradeReq mshr miss latency
system.l2.ReadExReq_avg_mshr_miss_latency::cpu0.data 61151.492537                       # average ReadExReq mshr miss latency
system.l2.ReadExReq_avg_mshr_miss_latency::cpu1.data 113187.500000                       # average ReadExReq mshr miss latency
system.l2.ReadExReq_avg_mshr_miss_latency::cpu2.data 97812.500000                       # average ReadExReq mshr miss latency
system.l2.ReadExReq_avg_mshr_miss_latency::cpu3.data 72687.500000                       # average ReadExReq mshr miss latency
system.l2.ReadExReq_avg_mshr_miss_latency::total 61389.152341                       # average ReadExReq mshr miss latency
system.l2.demand_avg_mshr_miss_latency::cpu0.inst 66156.250000                       # average overall mshr miss latency
system.l2.demand_avg_mshr_miss_latency::cpu0.data 61922.722191                       # average overall mshr miss latency
system.l2.demand_avg_mshr_miss_latency::cpu1.inst 68279.411765                       # average overall mshr miss latency
system.l2.demand_avg_mshr_miss_latency::cpu1.data       104550                       # average overall mshr miss latency
system.l2.demand_avg_mshr_miss_latency::cpu2.inst 56583.333333                       # average overall mshr miss latency
system.l2.demand_avg_mshr_miss_latency::cpu2.data 97812.500000                       # average overall mshr miss latency
system.l2.demand_avg_mshr_miss_latency::cpu3.inst        65700                       # average overall mshr miss latency
system.l2.demand_avg_mshr_miss_latency::cpu3.data        70850                       # average overall mshr miss latency
system.l2.demand_avg_mshr_miss_latency::total 63067.948718                       # average overall mshr miss latency
system.l2.overall_avg_mshr_miss_latency::cpu0.inst 66156.250000                       # average overall mshr miss latency
system.l2.overall_avg_mshr_miss_latency::cpu0.data 61922.722191                       # average overall mshr miss latency
system.l2.overall_avg_mshr_miss_latency::cpu1.inst 68279.411765                       # average overall mshr miss latency
system.l2.overall_avg_mshr_miss_latency::cpu1.data       104550                       # average overall mshr miss latency
system.l2.overall_avg_mshr_miss_latency::cpu2.inst 56583.333333                       # average overall mshr miss latency
system.l2.overall_avg_mshr_miss_latency::cpu2.data 97812.500000                       # average overall mshr miss latency
system.l2.overall_avg_mshr_miss_latency::cpu3.inst        65700                       # average overall mshr miss latency
system.l2.overall_avg_mshr_miss_latency::cpu3.data        70850                       # average overall mshr miss latency
system.l2.overall_avg_mshr_miss_latency::total 63067.948718                       # average overall mshr miss latency
system.l2.no_allocate_misses                        0                       # Number of misses that were no-allocate
system.membus.trans_dist::ReadReq                 652                       # Transaction distribution
system.membus.trans_dist::ReadResp                651                       # Transaction distribution
system.membus.trans_dist::UpgradeReq               53                       # Transaction distribution
system.membus.trans_dist::SCUpgradeReq              9                       # Transaction distribution
system.membus.trans_dist::UpgradeResp              47                       # Transaction distribution
system.membus.trans_dist::ReadExReq              1687                       # Transaction distribution
system.membus.trans_dist::ReadExResp             1687                       # Transaction distribution
system.membus.pkt_count_system.l2.mem_side::system.mem_ctrls.port         4786                       # Packet count per connected master and slave (bytes)
system.membus.pkt_count::total                   4786                       # Packet count per connected master and slave (bytes)
system.membus.pkt_size_system.l2.mem_side::system.mem_ctrls.port       149632                       # Cumulative packet size per connected master and slave (bytes)
system.membus.pkt_size::total                  149632                       # Cumulative packet size per connected master and slave (bytes)
system.membus.snoops                               15                       # Total snoops (count)
system.membus.snoop_fanout::samples              2401                       # Request fanout histogram
system.membus.snoop_fanout::mean                    0                       # Request fanout histogram
system.membus.snoop_fanout::stdev                   0                       # Request fanout histogram
system.membus.snoop_fanout::underflows              0      0.00%      0.00% # Request fanout histogram
system.membus.snoop_fanout::0                    2401    100.00%    100.00% # Request fanout histogram
system.membus.snoop_fanout::1                       0      0.00%    100.00% # Request fanout histogram
system.membus.snoop_fanout::overflows               0      0.00%    100.00% # Request fanout histogram
system.membus.snoop_fanout::min_value               0                       # Request fanout histogram
system.membus.snoop_fanout::max_value               0                       # Request fanout histogram
system.membus.snoop_fanout::total                2401                       # Request fanout histogram
system.membus.reqLayer0.occupancy             2587500                       # Layer occupancy (ticks)
system.membus.reqLayer0.utilization               1.0                       # Layer utilization (%)
system.membus.respLayer1.occupancy           12402953                       # Layer occupancy (ticks)
system.membus.respLayer1.utilization              4.8                       # Layer utilization (%)
system.tol2bus.trans_dist::ReadReq              10097                       # Transaction distribution
system.tol2bus.trans_dist::ReadResp             10095                       # Transaction distribution
system.tol2bus.trans_dist::Writeback             6880                       # Transaction distribution
system.tol2bus.trans_dist::UpgradeReq              62                       # Transaction distribution
system.tol2bus.trans_dist::SCUpgradeReq            10                       # Transaction distribution
system.tol2bus.trans_dist::UpgradeResp             72                       # Transaction distribution
system.tol2bus.trans_dist::SCUpgradeFailReq            1                       # Transaction distribution
system.tol2bus.trans_dist::UpgradeFailResp            1                       # Transaction distribution
system.tol2bus.trans_dist::ReadExReq             6552                       # Transaction distribution
system.tol2bus.trans_dist::ReadExResp            6552                       # Transaction distribution
system.tol2bus.pkt_count_system.cpu0.icache.mem_side::system.l2.cpu_side         1218                       # Packet count per connected master and slave (bytes)
system.tol2bus.pkt_count_system.cpu0.dcache.mem_side::system.l2.cpu_side        14540                       # Packet count per connected master and slave (bytes)
system.tol2bus.pkt_count_system.cpu1.icache.mem_side::system.l2.cpu_side          104                       # Packet count per connected master and slave (bytes)
system.tol2bus.pkt_count_system.cpu1.dcache.mem_side::system.l2.cpu_side         5701                       # Packet count per connected master and slave (bytes)
system.tol2bus.pkt_count_system.cpu2.icache.mem_side::system.l2.cpu_side          106                       # Packet count per connected master and slave (bytes)
system.tol2bus.pkt_count_system.cpu2.dcache.mem_side::system.l2.cpu_side         5880                       # Packet count per connected master and slave (bytes)
system.tol2bus.pkt_count_system.cpu3.icache.mem_side::system.l2.cpu_side          108                       # Packet count per connected master and slave (bytes)
system.tol2bus.pkt_count_system.cpu3.dcache.mem_side::system.l2.cpu_side         5596                       # Packet count per connected master and slave (bytes)
system.tol2bus.pkt_count::total                 33253                       # Packet count per connected master and slave (bytes)
system.tol2bus.pkt_size_system.cpu0.icache.mem_side::system.l2.cpu_side        38912                       # Cumulative packet size per connected master and slave (bytes)
system.tol2bus.pkt_size_system.cpu0.dcache.mem_side::system.l2.cpu_side       576256                       # Cumulative packet size per connected master and slave (bytes)
system.tol2bus.pkt_size_system.cpu1.icache.mem_side::system.l2.cpu_side         3328                       # Cumulative packet size per connected master and slave (bytes)
system.tol2bus.pkt_size_system.cpu1.dcache.mem_side::system.l2.cpu_side       139392                       # Cumulative packet size per connected master and slave (bytes)
system.tol2bus.pkt_size_system.cpu2.icache.mem_side::system.l2.cpu_side         3392                       # Cumulative packet size per connected master and slave (bytes)
system.tol2bus.pkt_size_system.cpu2.dcache.mem_side::system.l2.cpu_side       153088                       # Cumulative packet size per connected master and slave (bytes)
system.tol2bus.pkt_size_system.cpu3.icache.mem_side::system.l2.cpu_side         3456                       # Cumulative packet size per connected master and slave (bytes)
system.tol2bus.pkt_size_system.cpu3.dcache.mem_side::system.l2.cpu_side       136512                       # Cumulative packet size per connected master and slave (bytes)
system.tol2bus.pkt_size::total                1054336                       # Cumulative packet size per connected master and slave (bytes)
system.tol2bus.snoops                            7069                       # Total snoops (count)
system.tol2bus.snoop_fanout::samples            23602                       # Request fanout histogram
system.tol2bus.snoop_fanout::mean                   7                       # Request fanout histogram
system.tol2bus.snoop_fanout::stdev                  0                       # Request fanout histogram
system.tol2bus.snoop_fanout::underflows             0      0.00%      0.00% # Request fanout histogram
system.tol2bus.snoop_fanout::0                      0      0.00%      0.00% # Request fanout histogram
system.tol2bus.snoop_fanout::1                      0      0.00%      0.00% # Request fanout histogram
system.tol2bus.snoop_fanout::2                      0      0.00%      0.00% # Request fanout histogram
system.tol2bus.snoop_fanout::3                      0      0.00%      0.00% # Request fanout histogram
system.tol2bus.snoop_fanout::4                      0      0.00%      0.00% # Request fanout histogram
system.tol2bus.snoop_fanout::5                      0      0.00%      0.00% # Request fanout histogram
system.tol2bus.snoop_fanout::6                      0      0.00%      0.00% # Request fanout histogram
system.tol2bus.snoop_fanout::7                  23602    100.00%    100.00% # Request fanout histogram
system.tol2bus.snoop_fanout::8                      0      0.00%    100.00% # Request fanout histogram
system.tol2bus.snoop_fanout::overflows              0      0.00%    100.00% # Request fanout histogram
system.tol2bus.snoop_fanout::min_value              7                       # Request fanout histogram
system.tol2bus.snoop_fanout::max_value              7                       # Request fanout histogram
system.tol2bus.snoop_fanout::total              23602                       # Request fanout histogram
system.tol2bus.reqLayer0.occupancy           18681998                       # Layer occupancy (ticks)
system.tol2bus.reqLayer0.utilization              7.3                       # Layer utilization (%)
system.tol2bus.respLayer0.occupancy           1011234                       # Layer occupancy (ticks)
system.tol2bus.respLayer0.utilization             0.4                       # Layer utilization (%)
system.tol2bus.respLayer1.occupancy           8536775                       # Layer occupancy (ticks)
system.tol2bus.respLayer1.utilization             3.3                       # Layer utilization (%)
system.tol2bus.respLayer4.occupancy             83481                       # Layer occupancy (ticks)
system.tol2bus.respLayer4.utilization             0.0                       # Layer utilization (%)
system.tol2bus.respLayer5.occupancy           5318159                       # Layer occupancy (ticks)
system.tol2bus.respLayer5.utilization             2.1                       # Layer utilization (%)
system.tol2bus.respLayer8.occupancy             85974                       # Layer occupancy (ticks)
system.tol2bus.respLayer8.utilization             0.0                       # Layer utilization (%)
system.tol2bus.respLayer9.occupancy           5260921                       # Layer occupancy (ticks)
system.tol2bus.respLayer9.utilization             2.1                       # Layer utilization (%)
system.tol2bus.respLayer12.occupancy            85976                       # Layer occupancy (ticks)
system.tol2bus.respLayer12.utilization            0.0                       # Layer utilization (%)
system.tol2bus.respLayer13.occupancy          5235392                       # Layer occupancy (ticks)
system.tol2bus.respLayer13.utilization            2.0                       # Layer utilization (%)

---------- End Simulation Statistics   ----------
