
---------- Begin Simulation Statistics ----------
sim_seconds                                  0.000168                       # Number of seconds simulated
sim_ticks                                   168480000                       # Number of ticks simulated
final_tick                                  168480000                       # Number of ticks from beginning of simulation (restored from checkpoints and never reset)
sim_freq                                 1000000000000                       # Frequency of simulated ticks
host_inst_rate                                 161686                       # Simulator instruction rate (inst/s)
host_op_rate                                   163754                       # Simulator op (including micro ops) rate (op/s)
host_tick_rate                                5535515                       # Simulator tick rate (ticks/s)
host_mem_usage                                 892960                       # Number of bytes of host memory used
host_seconds                                    30.44                       # Real time elapsed on the host
sim_insts                                     4921085                       # Number of instructions simulated
sim_ops                                       4984060                       # Number of ops (including micro ops) simulated
system.voltage_domain.voltage                       1                       # Voltage in Volts
system.clk_domain.clock                          1000                       # Clock period in ticks
system.mem_ctrls.bytes_read::cpu00.inst         32000                       # Number of bytes read from this memory
system.mem_ctrls.bytes_read::cpu00.data        120320                       # Number of bytes read from this memory
system.mem_ctrls.bytes_read::cpu01.inst          1472                       # Number of bytes read from this memory
system.mem_ctrls.bytes_read::cpu01.data           320                       # Number of bytes read from this memory
system.mem_ctrls.bytes_read::cpu02.inst            64                       # Number of bytes read from this memory
system.mem_ctrls.bytes_read::cpu02.data           256                       # Number of bytes read from this memory
system.mem_ctrls.bytes_read::cpu03.data           256                       # Number of bytes read from this memory
system.mem_ctrls.bytes_read::cpu04.inst            64                       # Number of bytes read from this memory
system.mem_ctrls.bytes_read::cpu04.data           256                       # Number of bytes read from this memory
system.mem_ctrls.bytes_read::cpu05.data           256                       # Number of bytes read from this memory
system.mem_ctrls.bytes_read::cpu06.data           256                       # Number of bytes read from this memory
system.mem_ctrls.bytes_read::cpu07.data           320                       # Number of bytes read from this memory
system.mem_ctrls.bytes_read::cpu08.data           256                       # Number of bytes read from this memory
system.mem_ctrls.bytes_read::cpu09.data           256                       # Number of bytes read from this memory
system.mem_ctrls.bytes_read::cpu10.data           256                       # Number of bytes read from this memory
system.mem_ctrls.bytes_read::cpu11.data           256                       # Number of bytes read from this memory
system.mem_ctrls.bytes_read::cpu12.data           384                       # Number of bytes read from this memory
system.mem_ctrls.bytes_read::cpu13.inst           384                       # Number of bytes read from this memory
system.mem_ctrls.bytes_read::cpu13.data           320                       # Number of bytes read from this memory
system.mem_ctrls.bytes_read::cpu14.inst           128                       # Number of bytes read from this memory
system.mem_ctrls.bytes_read::cpu14.data           256                       # Number of bytes read from this memory
system.mem_ctrls.bytes_read::cpu15.data           256                       # Number of bytes read from this memory
system.mem_ctrls.bytes_read::cpu16.data           256                       # Number of bytes read from this memory
system.mem_ctrls.bytes_read::cpu17.data           256                       # Number of bytes read from this memory
system.mem_ctrls.bytes_read::cpu18.data           256                       # Number of bytes read from this memory
system.mem_ctrls.bytes_read::cpu19.data           256                       # Number of bytes read from this memory
system.mem_ctrls.bytes_read::cpu20.data           256                       # Number of bytes read from this memory
system.mem_ctrls.bytes_read::cpu21.data           256                       # Number of bytes read from this memory
system.mem_ctrls.bytes_read::cpu22.data           256                       # Number of bytes read from this memory
system.mem_ctrls.bytes_read::cpu23.inst           192                       # Number of bytes read from this memory
system.mem_ctrls.bytes_read::cpu23.data           256                       # Number of bytes read from this memory
system.mem_ctrls.bytes_read::cpu24.data           256                       # Number of bytes read from this memory
system.mem_ctrls.bytes_read::cpu25.data           256                       # Number of bytes read from this memory
system.mem_ctrls.bytes_read::cpu26.data           256                       # Number of bytes read from this memory
system.mem_ctrls.bytes_read::cpu27.data           256                       # Number of bytes read from this memory
system.mem_ctrls.bytes_read::cpu28.data           320                       # Number of bytes read from this memory
system.mem_ctrls.bytes_read::cpu29.inst           128                       # Number of bytes read from this memory
system.mem_ctrls.bytes_read::cpu29.data           256                       # Number of bytes read from this memory
system.mem_ctrls.bytes_read::cpu30.data           256                       # Number of bytes read from this memory
system.mem_ctrls.bytes_read::cpu31.inst            64                       # Number of bytes read from this memory
system.mem_ctrls.bytes_read::cpu31.data           256                       # Number of bytes read from this memory
system.mem_ctrls.bytes_read::total             163136                       # Number of bytes read from this memory
system.mem_ctrls.bytes_inst_read::cpu00.inst        32000                       # Number of instructions bytes read from this memory
system.mem_ctrls.bytes_inst_read::cpu01.inst         1472                       # Number of instructions bytes read from this memory
system.mem_ctrls.bytes_inst_read::cpu02.inst           64                       # Number of instructions bytes read from this memory
system.mem_ctrls.bytes_inst_read::cpu04.inst           64                       # Number of instructions bytes read from this memory
system.mem_ctrls.bytes_inst_read::cpu13.inst          384                       # Number of instructions bytes read from this memory
system.mem_ctrls.bytes_inst_read::cpu14.inst          128                       # Number of instructions bytes read from this memory
system.mem_ctrls.bytes_inst_read::cpu23.inst          192                       # Number of instructions bytes read from this memory
system.mem_ctrls.bytes_inst_read::cpu29.inst          128                       # Number of instructions bytes read from this memory
system.mem_ctrls.bytes_inst_read::cpu31.inst           64                       # Number of instructions bytes read from this memory
system.mem_ctrls.bytes_inst_read::total         34496                       # Number of instructions bytes read from this memory
system.mem_ctrls.bytes_written::writebacks         1024                       # Number of bytes written to this memory
system.mem_ctrls.bytes_written::total            1024                       # Number of bytes written to this memory
system.mem_ctrls.num_reads::cpu00.inst            500                       # Number of read requests responded to by this memory
system.mem_ctrls.num_reads::cpu00.data           1880                       # Number of read requests responded to by this memory
system.mem_ctrls.num_reads::cpu01.inst             23                       # Number of read requests responded to by this memory
system.mem_ctrls.num_reads::cpu01.data              5                       # Number of read requests responded to by this memory
system.mem_ctrls.num_reads::cpu02.inst              1                       # Number of read requests responded to by this memory
system.mem_ctrls.num_reads::cpu02.data              4                       # Number of read requests responded to by this memory
system.mem_ctrls.num_reads::cpu03.data              4                       # Number of read requests responded to by this memory
system.mem_ctrls.num_reads::cpu04.inst              1                       # Number of read requests responded to by this memory
system.mem_ctrls.num_reads::cpu04.data              4                       # Number of read requests responded to by this memory
system.mem_ctrls.num_reads::cpu05.data              4                       # Number of read requests responded to by this memory
system.mem_ctrls.num_reads::cpu06.data              4                       # Number of read requests responded to by this memory
system.mem_ctrls.num_reads::cpu07.data              5                       # Number of read requests responded to by this memory
system.mem_ctrls.num_reads::cpu08.data              4                       # Number of read requests responded to by this memory
system.mem_ctrls.num_reads::cpu09.data              4                       # Number of read requests responded to by this memory
system.mem_ctrls.num_reads::cpu10.data              4                       # Number of read requests responded to by this memory
system.mem_ctrls.num_reads::cpu11.data              4                       # Number of read requests responded to by this memory
system.mem_ctrls.num_reads::cpu12.data              6                       # Number of read requests responded to by this memory
system.mem_ctrls.num_reads::cpu13.inst              6                       # Number of read requests responded to by this memory
system.mem_ctrls.num_reads::cpu13.data              5                       # Number of read requests responded to by this memory
system.mem_ctrls.num_reads::cpu14.inst              2                       # Number of read requests responded to by this memory
system.mem_ctrls.num_reads::cpu14.data              4                       # Number of read requests responded to by this memory
system.mem_ctrls.num_reads::cpu15.data              4                       # Number of read requests responded to by this memory
system.mem_ctrls.num_reads::cpu16.data              4                       # Number of read requests responded to by this memory
system.mem_ctrls.num_reads::cpu17.data              4                       # Number of read requests responded to by this memory
system.mem_ctrls.num_reads::cpu18.data              4                       # Number of read requests responded to by this memory
system.mem_ctrls.num_reads::cpu19.data              4                       # Number of read requests responded to by this memory
system.mem_ctrls.num_reads::cpu20.data              4                       # Number of read requests responded to by this memory
system.mem_ctrls.num_reads::cpu21.data              4                       # Number of read requests responded to by this memory
system.mem_ctrls.num_reads::cpu22.data              4                       # Number of read requests responded to by this memory
system.mem_ctrls.num_reads::cpu23.inst              3                       # Number of read requests responded to by this memory
system.mem_ctrls.num_reads::cpu23.data              4                       # Number of read requests responded to by this memory
system.mem_ctrls.num_reads::cpu24.data              4                       # Number of read requests responded to by this memory
system.mem_ctrls.num_reads::cpu25.data              4                       # Number of read requests responded to by this memory
system.mem_ctrls.num_reads::cpu26.data              4                       # Number of read requests responded to by this memory
system.mem_ctrls.num_reads::cpu27.data              4                       # Number of read requests responded to by this memory
system.mem_ctrls.num_reads::cpu28.data              5                       # Number of read requests responded to by this memory
system.mem_ctrls.num_reads::cpu29.inst              2                       # Number of read requests responded to by this memory
system.mem_ctrls.num_reads::cpu29.data              4                       # Number of read requests responded to by this memory
system.mem_ctrls.num_reads::cpu30.data              4                       # Number of read requests responded to by this memory
system.mem_ctrls.num_reads::cpu31.inst              1                       # Number of read requests responded to by this memory
system.mem_ctrls.num_reads::cpu31.data              4                       # Number of read requests responded to by this memory
system.mem_ctrls.num_reads::total                2549                       # Number of read requests responded to by this memory
system.mem_ctrls.num_writes::writebacks            16                       # Number of write requests responded to by this memory
system.mem_ctrls.num_writes::total                 16                       # Number of write requests responded to by this memory
system.mem_ctrls.bw_read::cpu00.inst        189933523                       # Total read bandwidth from this memory (bytes/s)
system.mem_ctrls.bw_read::cpu00.data        714150047                       # Total read bandwidth from this memory (bytes/s)
system.mem_ctrls.bw_read::cpu01.inst          8736942                       # Total read bandwidth from this memory (bytes/s)
system.mem_ctrls.bw_read::cpu01.data          1899335                       # Total read bandwidth from this memory (bytes/s)
system.mem_ctrls.bw_read::cpu02.inst           379867                       # Total read bandwidth from this memory (bytes/s)
system.mem_ctrls.bw_read::cpu02.data          1519468                       # Total read bandwidth from this memory (bytes/s)
system.mem_ctrls.bw_read::cpu03.data          1519468                       # Total read bandwidth from this memory (bytes/s)
system.mem_ctrls.bw_read::cpu04.inst           379867                       # Total read bandwidth from this memory (bytes/s)
system.mem_ctrls.bw_read::cpu04.data          1519468                       # Total read bandwidth from this memory (bytes/s)
system.mem_ctrls.bw_read::cpu05.data          1519468                       # Total read bandwidth from this memory (bytes/s)
system.mem_ctrls.bw_read::cpu06.data          1519468                       # Total read bandwidth from this memory (bytes/s)
system.mem_ctrls.bw_read::cpu07.data          1899335                       # Total read bandwidth from this memory (bytes/s)
system.mem_ctrls.bw_read::cpu08.data          1519468                       # Total read bandwidth from this memory (bytes/s)
system.mem_ctrls.bw_read::cpu09.data          1519468                       # Total read bandwidth from this memory (bytes/s)
system.mem_ctrls.bw_read::cpu10.data          1519468                       # Total read bandwidth from this memory (bytes/s)
system.mem_ctrls.bw_read::cpu11.data          1519468                       # Total read bandwidth from this memory (bytes/s)
system.mem_ctrls.bw_read::cpu12.data          2279202                       # Total read bandwidth from this memory (bytes/s)
system.mem_ctrls.bw_read::cpu13.inst          2279202                       # Total read bandwidth from this memory (bytes/s)
system.mem_ctrls.bw_read::cpu13.data          1899335                       # Total read bandwidth from this memory (bytes/s)
system.mem_ctrls.bw_read::cpu14.inst           759734                       # Total read bandwidth from this memory (bytes/s)
system.mem_ctrls.bw_read::cpu14.data          1519468                       # Total read bandwidth from this memory (bytes/s)
system.mem_ctrls.bw_read::cpu15.data          1519468                       # Total read bandwidth from this memory (bytes/s)
system.mem_ctrls.bw_read::cpu16.data          1519468                       # Total read bandwidth from this memory (bytes/s)
system.mem_ctrls.bw_read::cpu17.data          1519468                       # Total read bandwidth from this memory (bytes/s)
system.mem_ctrls.bw_read::cpu18.data          1519468                       # Total read bandwidth from this memory (bytes/s)
system.mem_ctrls.bw_read::cpu19.data          1519468                       # Total read bandwidth from this memory (bytes/s)
system.mem_ctrls.bw_read::cpu20.data          1519468                       # Total read bandwidth from this memory (bytes/s)
system.mem_ctrls.bw_read::cpu21.data          1519468                       # Total read bandwidth from this memory (bytes/s)
system.mem_ctrls.bw_read::cpu22.data          1519468                       # Total read bandwidth from this memory (bytes/s)
system.mem_ctrls.bw_read::cpu23.inst          1139601                       # Total read bandwidth from this memory (bytes/s)
system.mem_ctrls.bw_read::cpu23.data          1519468                       # Total read bandwidth from this memory (bytes/s)
system.mem_ctrls.bw_read::cpu24.data          1519468                       # Total read bandwidth from this memory (bytes/s)
system.mem_ctrls.bw_read::cpu25.data          1519468                       # Total read bandwidth from this memory (bytes/s)
system.mem_ctrls.bw_read::cpu26.data          1519468                       # Total read bandwidth from this memory (bytes/s)
system.mem_ctrls.bw_read::cpu27.data          1519468                       # Total read bandwidth from this memory (bytes/s)
system.mem_ctrls.bw_read::cpu28.data          1899335                       # Total read bandwidth from this memory (bytes/s)
system.mem_ctrls.bw_read::cpu29.inst           759734                       # Total read bandwidth from this memory (bytes/s)
system.mem_ctrls.bw_read::cpu29.data          1519468                       # Total read bandwidth from this memory (bytes/s)
system.mem_ctrls.bw_read::cpu30.data          1519468                       # Total read bandwidth from this memory (bytes/s)
system.mem_ctrls.bw_read::cpu31.inst           379867                       # Total read bandwidth from this memory (bytes/s)
system.mem_ctrls.bw_read::cpu31.data          1519468                       # Total read bandwidth from this memory (bytes/s)
system.mem_ctrls.bw_read::total             968281102                       # Total read bandwidth from this memory (bytes/s)
system.mem_ctrls.bw_inst_read::cpu00.inst    189933523                       # Instruction read bandwidth from this memory (bytes/s)
system.mem_ctrls.bw_inst_read::cpu01.inst      8736942                       # Instruction read bandwidth from this memory (bytes/s)
system.mem_ctrls.bw_inst_read::cpu02.inst       379867                       # Instruction read bandwidth from this memory (bytes/s)
system.mem_ctrls.bw_inst_read::cpu04.inst       379867                       # Instruction read bandwidth from this memory (bytes/s)
system.mem_ctrls.bw_inst_read::cpu13.inst      2279202                       # Instruction read bandwidth from this memory (bytes/s)
system.mem_ctrls.bw_inst_read::cpu14.inst       759734                       # Instruction read bandwidth from this memory (bytes/s)
system.mem_ctrls.bw_inst_read::cpu23.inst      1139601                       # Instruction read bandwidth from this memory (bytes/s)
system.mem_ctrls.bw_inst_read::cpu29.inst       759734                       # Instruction read bandwidth from this memory (bytes/s)
system.mem_ctrls.bw_inst_read::cpu31.inst       379867                       # Instruction read bandwidth from this memory (bytes/s)
system.mem_ctrls.bw_inst_read::total        204748338                       # Instruction read bandwidth from this memory (bytes/s)
system.mem_ctrls.bw_write::writebacks         6077873                       # Write bandwidth from this memory (bytes/s)
system.mem_ctrls.bw_write::total              6077873                       # Write bandwidth from this memory (bytes/s)
system.mem_ctrls.bw_total::writebacks         6077873                       # Total bandwidth to/from this memory (bytes/s)
system.mem_ctrls.bw_total::cpu00.inst       189933523                       # Total bandwidth to/from this memory (bytes/s)
system.mem_ctrls.bw_total::cpu00.data       714150047                       # Total bandwidth to/from this memory (bytes/s)
system.mem_ctrls.bw_total::cpu01.inst         8736942                       # Total bandwidth to/from this memory (bytes/s)
system.mem_ctrls.bw_total::cpu01.data         1899335                       # Total bandwidth to/from this memory (bytes/s)
system.mem_ctrls.bw_total::cpu02.inst          379867                       # Total bandwidth to/from this memory (bytes/s)
system.mem_ctrls.bw_total::cpu02.data         1519468                       # Total bandwidth to/from this memory (bytes/s)
system.mem_ctrls.bw_total::cpu03.data         1519468                       # Total bandwidth to/from this memory (bytes/s)
system.mem_ctrls.bw_total::cpu04.inst          379867                       # Total bandwidth to/from this memory (bytes/s)
system.mem_ctrls.bw_total::cpu04.data         1519468                       # Total bandwidth to/from this memory (bytes/s)
system.mem_ctrls.bw_total::cpu05.data         1519468                       # Total bandwidth to/from this memory (bytes/s)
system.mem_ctrls.bw_total::cpu06.data         1519468                       # Total bandwidth to/from this memory (bytes/s)
system.mem_ctrls.bw_total::cpu07.data         1899335                       # Total bandwidth to/from this memory (bytes/s)
system.mem_ctrls.bw_total::cpu08.data         1519468                       # Total bandwidth to/from this memory (bytes/s)
system.mem_ctrls.bw_total::cpu09.data         1519468                       # Total bandwidth to/from this memory (bytes/s)
system.mem_ctrls.bw_total::cpu10.data         1519468                       # Total bandwidth to/from this memory (bytes/s)
system.mem_ctrls.bw_total::cpu11.data         1519468                       # Total bandwidth to/from this memory (bytes/s)
system.mem_ctrls.bw_total::cpu12.data         2279202                       # Total bandwidth to/from this memory (bytes/s)
system.mem_ctrls.bw_total::cpu13.inst         2279202                       # Total bandwidth to/from this memory (bytes/s)
system.mem_ctrls.bw_total::cpu13.data         1899335                       # Total bandwidth to/from this memory (bytes/s)
system.mem_ctrls.bw_total::cpu14.inst          759734                       # Total bandwidth to/from this memory (bytes/s)
system.mem_ctrls.bw_total::cpu14.data         1519468                       # Total bandwidth to/from this memory (bytes/s)
system.mem_ctrls.bw_total::cpu15.data         1519468                       # Total bandwidth to/from this memory (bytes/s)
system.mem_ctrls.bw_total::cpu16.data         1519468                       # Total bandwidth to/from this memory (bytes/s)
system.mem_ctrls.bw_total::cpu17.data         1519468                       # Total bandwidth to/from this memory (bytes/s)
system.mem_ctrls.bw_total::cpu18.data         1519468                       # Total bandwidth to/from this memory (bytes/s)
system.mem_ctrls.bw_total::cpu19.data         1519468                       # Total bandwidth to/from this memory (bytes/s)
system.mem_ctrls.bw_total::cpu20.data         1519468                       # Total bandwidth to/from this memory (bytes/s)
system.mem_ctrls.bw_total::cpu21.data         1519468                       # Total bandwidth to/from this memory (bytes/s)
system.mem_ctrls.bw_total::cpu22.data         1519468                       # Total bandwidth to/from this memory (bytes/s)
system.mem_ctrls.bw_total::cpu23.inst         1139601                       # Total bandwidth to/from this memory (bytes/s)
system.mem_ctrls.bw_total::cpu23.data         1519468                       # Total bandwidth to/from this memory (bytes/s)
system.mem_ctrls.bw_total::cpu24.data         1519468                       # Total bandwidth to/from this memory (bytes/s)
system.mem_ctrls.bw_total::cpu25.data         1519468                       # Total bandwidth to/from this memory (bytes/s)
system.mem_ctrls.bw_total::cpu26.data         1519468                       # Total bandwidth to/from this memory (bytes/s)
system.mem_ctrls.bw_total::cpu27.data         1519468                       # Total bandwidth to/from this memory (bytes/s)
system.mem_ctrls.bw_total::cpu28.data         1899335                       # Total bandwidth to/from this memory (bytes/s)
system.mem_ctrls.bw_total::cpu29.inst          759734                       # Total bandwidth to/from this memory (bytes/s)
system.mem_ctrls.bw_total::cpu29.data         1519468                       # Total bandwidth to/from this memory (bytes/s)
system.mem_ctrls.bw_total::cpu30.data         1519468                       # Total bandwidth to/from this memory (bytes/s)
system.mem_ctrls.bw_total::cpu31.inst          379867                       # Total bandwidth to/from this memory (bytes/s)
system.mem_ctrls.bw_total::cpu31.data         1519468                       # Total bandwidth to/from this memory (bytes/s)
system.mem_ctrls.bw_total::total            974358974                       # Total bandwidth to/from this memory (bytes/s)
system.mem_ctrls.readReqs                        2549                       # Number of read requests accepted
system.mem_ctrls.writeReqs                         16                       # Number of write requests accepted
system.mem_ctrls.readBursts                      2549                       # Number of DRAM read bursts, including those serviced by the write queue
system.mem_ctrls.writeBursts                       16                       # Number of DRAM write bursts, including those merged in the write queue
system.mem_ctrls.bytesReadDRAM                 163072                       # Total number of bytes read from DRAM
system.mem_ctrls.bytesReadWrQ                      64                       # Total number of bytes read from write queue
system.mem_ctrls.bytesWritten                       0                       # Total number of bytes written to DRAM
system.mem_ctrls.bytesReadSys                  163136                       # Total read bytes from the system interface side
system.mem_ctrls.bytesWrittenSys                 1024                       # Total written bytes from the system interface side
system.mem_ctrls.servicedByWrQ                      1                       # Number of DRAM read bursts serviced by the write queue
system.mem_ctrls.mergedWrBursts                     0                       # Number of DRAM write bursts merged with an existing one
system.mem_ctrls.neitherReadNorWriteReqs            6                       # Number of requests that are neither read nor write
system.mem_ctrls.perBankRdBursts::0               120                       # Per bank write bursts
system.mem_ctrls.perBankRdBursts::1               137                       # Per bank write bursts
system.mem_ctrls.perBankRdBursts::2               133                       # Per bank write bursts
system.mem_ctrls.perBankRdBursts::3               279                       # Per bank write bursts
system.mem_ctrls.perBankRdBursts::4               240                       # Per bank write bursts
system.mem_ctrls.perBankRdBursts::5               145                       # Per bank write bursts
system.mem_ctrls.perBankRdBursts::6               209                       # Per bank write bursts
system.mem_ctrls.perBankRdBursts::7               159                       # Per bank write bursts
system.mem_ctrls.perBankRdBursts::8               142                       # Per bank write bursts
system.mem_ctrls.perBankRdBursts::9               138                       # Per bank write bursts
system.mem_ctrls.perBankRdBursts::10              128                       # Per bank write bursts
system.mem_ctrls.perBankRdBursts::11              140                       # Per bank write bursts
system.mem_ctrls.perBankRdBursts::12              134                       # Per bank write bursts
system.mem_ctrls.perBankRdBursts::13              161                       # Per bank write bursts
system.mem_ctrls.perBankRdBursts::14              166                       # Per bank write bursts
system.mem_ctrls.perBankRdBursts::15              117                       # Per bank write bursts
system.mem_ctrls.perBankWrBursts::0                 0                       # Per bank write bursts
system.mem_ctrls.perBankWrBursts::1                 0                       # Per bank write bursts
system.mem_ctrls.perBankWrBursts::2                 0                       # Per bank write bursts
system.mem_ctrls.perBankWrBursts::3                 0                       # Per bank write bursts
system.mem_ctrls.perBankWrBursts::4                 0                       # Per bank write bursts
system.mem_ctrls.perBankWrBursts::5                 0                       # Per bank write bursts
system.mem_ctrls.perBankWrBursts::6                 0                       # Per bank write bursts
system.mem_ctrls.perBankWrBursts::7                 0                       # Per bank write bursts
system.mem_ctrls.perBankWrBursts::8                 0                       # Per bank write bursts
system.mem_ctrls.perBankWrBursts::9                 0                       # Per bank write bursts
system.mem_ctrls.perBankWrBursts::10                0                       # Per bank write bursts
system.mem_ctrls.perBankWrBursts::11                0                       # Per bank write bursts
system.mem_ctrls.perBankWrBursts::12                0                       # Per bank write bursts
system.mem_ctrls.perBankWrBursts::13                0                       # Per bank write bursts
system.mem_ctrls.perBankWrBursts::14                0                       # Per bank write bursts
system.mem_ctrls.perBankWrBursts::15                0                       # Per bank write bursts
system.mem_ctrls.numRdRetry                         0                       # Number of times read queue was full causing retry
system.mem_ctrls.numWrRetry                         0                       # Number of times write queue was full causing retry
system.mem_ctrls.totGap                     168436500                       # Total gap between requests
system.mem_ctrls.readPktSize::0                     0                       # Read request sizes (log2)
system.mem_ctrls.readPktSize::1                     0                       # Read request sizes (log2)
system.mem_ctrls.readPktSize::2                     0                       # Read request sizes (log2)
system.mem_ctrls.readPktSize::3                     0                       # Read request sizes (log2)
system.mem_ctrls.readPktSize::4                     0                       # Read request sizes (log2)
system.mem_ctrls.readPktSize::5                     0                       # Read request sizes (log2)
system.mem_ctrls.readPktSize::6                  2549                       # Read request sizes (log2)
system.mem_ctrls.writePktSize::0                    0                       # Write request sizes (log2)
system.mem_ctrls.writePktSize::1                    0                       # Write request sizes (log2)
system.mem_ctrls.writePktSize::2                    0                       # Write request sizes (log2)
system.mem_ctrls.writePktSize::3                    0                       # Write request sizes (log2)
system.mem_ctrls.writePktSize::4                    0                       # Write request sizes (log2)
system.mem_ctrls.writePktSize::5                    0                       # Write request sizes (log2)
system.mem_ctrls.writePktSize::6                   16                       # Write request sizes (log2)
system.mem_ctrls.rdQLenPdf::0                    1392                       # What read queue length does an incoming req see
system.mem_ctrls.rdQLenPdf::1                     964                       # What read queue length does an incoming req see
system.mem_ctrls.rdQLenPdf::2                     105                       # What read queue length does an incoming req see
system.mem_ctrls.rdQLenPdf::3                      42                       # What read queue length does an incoming req see
system.mem_ctrls.rdQLenPdf::4                      10                       # What read queue length does an incoming req see
system.mem_ctrls.rdQLenPdf::5                       3                       # What read queue length does an incoming req see
system.mem_ctrls.rdQLenPdf::6                       2                       # What read queue length does an incoming req see
system.mem_ctrls.rdQLenPdf::7                       2                       # What read queue length does an incoming req see
system.mem_ctrls.rdQLenPdf::8                       1                       # What read queue length does an incoming req see
system.mem_ctrls.rdQLenPdf::9                       1                       # What read queue length does an incoming req see
system.mem_ctrls.rdQLenPdf::10                      4                       # What read queue length does an incoming req see
system.mem_ctrls.rdQLenPdf::11                      2                       # What read queue length does an incoming req see
system.mem_ctrls.rdQLenPdf::12                      2                       # What read queue length does an incoming req see
system.mem_ctrls.rdQLenPdf::13                      1                       # What read queue length does an incoming req see
system.mem_ctrls.rdQLenPdf::14                      4                       # What read queue length does an incoming req see
system.mem_ctrls.rdQLenPdf::15                      1                       # What read queue length does an incoming req see
system.mem_ctrls.rdQLenPdf::16                      2                       # What read queue length does an incoming req see
system.mem_ctrls.rdQLenPdf::17                      2                       # What read queue length does an incoming req see
system.mem_ctrls.rdQLenPdf::18                      1                       # What read queue length does an incoming req see
system.mem_ctrls.rdQLenPdf::19                      7                       # What read queue length does an incoming req see
system.mem_ctrls.rdQLenPdf::20                      0                       # What read queue length does an incoming req see
system.mem_ctrls.rdQLenPdf::21                      0                       # What read queue length does an incoming req see
system.mem_ctrls.rdQLenPdf::22                      0                       # What read queue length does an incoming req see
system.mem_ctrls.rdQLenPdf::23                      0                       # What read queue length does an incoming req see
system.mem_ctrls.rdQLenPdf::24                      0                       # What read queue length does an incoming req see
system.mem_ctrls.rdQLenPdf::25                      0                       # What read queue length does an incoming req see
system.mem_ctrls.rdQLenPdf::26                      0                       # What read queue length does an incoming req see
system.mem_ctrls.rdQLenPdf::27                      0                       # What read queue length does an incoming req see
system.mem_ctrls.rdQLenPdf::28                      0                       # What read queue length does an incoming req see
system.mem_ctrls.rdQLenPdf::29                      0                       # What read queue length does an incoming req see
system.mem_ctrls.rdQLenPdf::30                      0                       # What read queue length does an incoming req see
system.mem_ctrls.rdQLenPdf::31                      0                       # What read queue length does an incoming req see
system.mem_ctrls.wrQLenPdf::0                       1                       # What write queue length does an incoming req see
system.mem_ctrls.wrQLenPdf::1                       1                       # What write queue length does an incoming req see
system.mem_ctrls.wrQLenPdf::2                       1                       # What write queue length does an incoming req see
system.mem_ctrls.wrQLenPdf::3                       1                       # What write queue length does an incoming req see
system.mem_ctrls.wrQLenPdf::4                       1                       # What write queue length does an incoming req see
system.mem_ctrls.wrQLenPdf::5                       1                       # What write queue length does an incoming req see
system.mem_ctrls.wrQLenPdf::6                       1                       # What write queue length does an incoming req see
system.mem_ctrls.wrQLenPdf::7                       1                       # What write queue length does an incoming req see
system.mem_ctrls.wrQLenPdf::8                       1                       # What write queue length does an incoming req see
system.mem_ctrls.wrQLenPdf::9                       1                       # What write queue length does an incoming req see
system.mem_ctrls.wrQLenPdf::10                      1                       # What write queue length does an incoming req see
system.mem_ctrls.wrQLenPdf::11                      1                       # What write queue length does an incoming req see
system.mem_ctrls.wrQLenPdf::12                      1                       # What write queue length does an incoming req see
system.mem_ctrls.wrQLenPdf::13                      1                       # What write queue length does an incoming req see
system.mem_ctrls.wrQLenPdf::14                      1                       # What write queue length does an incoming req see
system.mem_ctrls.wrQLenPdf::15                      1                       # What write queue length does an incoming req see
system.mem_ctrls.wrQLenPdf::16                      0                       # What write queue length does an incoming req see
system.mem_ctrls.wrQLenPdf::17                      0                       # What write queue length does an incoming req see
system.mem_ctrls.wrQLenPdf::18                      0                       # What write queue length does an incoming req see
system.mem_ctrls.wrQLenPdf::19                      0                       # What write queue length does an incoming req see
system.mem_ctrls.wrQLenPdf::20                      0                       # What write queue length does an incoming req see
system.mem_ctrls.wrQLenPdf::21                      0                       # What write queue length does an incoming req see
system.mem_ctrls.wrQLenPdf::22                      0                       # What write queue length does an incoming req see
system.mem_ctrls.wrQLenPdf::23                      0                       # What write queue length does an incoming req see
system.mem_ctrls.wrQLenPdf::24                      0                       # What write queue length does an incoming req see
system.mem_ctrls.wrQLenPdf::25                      0                       # What write queue length does an incoming req see
system.mem_ctrls.wrQLenPdf::26                      0                       # What write queue length does an incoming req see
system.mem_ctrls.wrQLenPdf::27                      0                       # What write queue length does an incoming req see
system.mem_ctrls.wrQLenPdf::28                      0                       # What write queue length does an incoming req see
system.mem_ctrls.wrQLenPdf::29                      0                       # What write queue length does an incoming req see
system.mem_ctrls.wrQLenPdf::30                      0                       # What write queue length does an incoming req see
system.mem_ctrls.wrQLenPdf::31                      0                       # What write queue length does an incoming req see
system.mem_ctrls.wrQLenPdf::32                      0                       # What write queue length does an incoming req see
system.mem_ctrls.wrQLenPdf::33                      0                       # What write queue length does an incoming req see
system.mem_ctrls.wrQLenPdf::34                      0                       # What write queue length does an incoming req see
system.mem_ctrls.wrQLenPdf::35                      0                       # What write queue length does an incoming req see
system.mem_ctrls.wrQLenPdf::36                      0                       # What write queue length does an incoming req see
system.mem_ctrls.wrQLenPdf::37                      0                       # What write queue length does an incoming req see
system.mem_ctrls.wrQLenPdf::38                      0                       # What write queue length does an incoming req see
system.mem_ctrls.wrQLenPdf::39                      0                       # What write queue length does an incoming req see
system.mem_ctrls.wrQLenPdf::40                      0                       # What write queue length does an incoming req see
system.mem_ctrls.wrQLenPdf::41                      0                       # What write queue length does an incoming req see
system.mem_ctrls.wrQLenPdf::42                      0                       # What write queue length does an incoming req see
system.mem_ctrls.wrQLenPdf::43                      0                       # What write queue length does an incoming req see
system.mem_ctrls.wrQLenPdf::44                      0                       # What write queue length does an incoming req see
system.mem_ctrls.wrQLenPdf::45                      0                       # What write queue length does an incoming req see
system.mem_ctrls.wrQLenPdf::46                      0                       # What write queue length does an incoming req see
system.mem_ctrls.wrQLenPdf::47                      0                       # What write queue length does an incoming req see
system.mem_ctrls.wrQLenPdf::48                      0                       # What write queue length does an incoming req see
system.mem_ctrls.wrQLenPdf::49                      0                       # What write queue length does an incoming req see
system.mem_ctrls.wrQLenPdf::50                      0                       # What write queue length does an incoming req see
system.mem_ctrls.wrQLenPdf::51                      0                       # What write queue length does an incoming req see
system.mem_ctrls.wrQLenPdf::52                      0                       # What write queue length does an incoming req see
system.mem_ctrls.wrQLenPdf::53                      0                       # What write queue length does an incoming req see
system.mem_ctrls.wrQLenPdf::54                      0                       # What write queue length does an incoming req see
system.mem_ctrls.wrQLenPdf::55                      0                       # What write queue length does an incoming req see
system.mem_ctrls.wrQLenPdf::56                      0                       # What write queue length does an incoming req see
system.mem_ctrls.wrQLenPdf::57                      0                       # What write queue length does an incoming req see
system.mem_ctrls.wrQLenPdf::58                      0                       # What write queue length does an incoming req see
system.mem_ctrls.wrQLenPdf::59                      0                       # What write queue length does an incoming req see
system.mem_ctrls.wrQLenPdf::60                      0                       # What write queue length does an incoming req see
system.mem_ctrls.wrQLenPdf::61                      0                       # What write queue length does an incoming req see
system.mem_ctrls.wrQLenPdf::62                      0                       # What write queue length does an incoming req see
system.mem_ctrls.wrQLenPdf::63                      0                       # What write queue length does an incoming req see
system.mem_ctrls.bytesPerActivate::samples          457                       # Bytes accessed per row activation
system.mem_ctrls.bytesPerActivate::mean    353.050328                       # Bytes accessed per row activation
system.mem_ctrls.bytesPerActivate::gmean   174.654493                       # Bytes accessed per row activation
system.mem_ctrls.bytesPerActivate::stdev   400.310077                       # Bytes accessed per row activation
system.mem_ctrls.bytesPerActivate::0-127          234     51.20%     51.20% # Bytes accessed per row activation
system.mem_ctrls.bytesPerActivate::128-255           51     11.16%     62.36% # Bytes accessed per row activation
system.mem_ctrls.bytesPerActivate::256-383           31      6.78%     69.15% # Bytes accessed per row activation
system.mem_ctrls.bytesPerActivate::384-511            9      1.97%     71.12% # Bytes accessed per row activation
system.mem_ctrls.bytesPerActivate::512-639            6      1.31%     72.43% # Bytes accessed per row activation
system.mem_ctrls.bytesPerActivate::640-767           10      2.19%     74.62% # Bytes accessed per row activation
system.mem_ctrls.bytesPerActivate::768-895            4      0.88%     75.49% # Bytes accessed per row activation
system.mem_ctrls.bytesPerActivate::896-1023           11      2.41%     77.90% # Bytes accessed per row activation
system.mem_ctrls.bytesPerActivate::1024-1151          101     22.10%    100.00% # Bytes accessed per row activation
system.mem_ctrls.bytesPerActivate::total          457                       # Bytes accessed per row activation
system.mem_ctrls.totQLat                     40044501                       # Total ticks spent queuing
system.mem_ctrls.totMemAccLat                87819501                       # Total ticks spent from burst creation until serviced by the DRAM
system.mem_ctrls.totBusLat                   12740000                       # Total ticks spent in databus transfers
system.mem_ctrls.avgQLat                     15716.05                       # Average queueing delay per DRAM burst
system.mem_ctrls.avgBusLat                    5000.00                       # Average bus latency per DRAM burst
system.mem_ctrls.avgMemAccLat                34466.05                       # Average memory access latency per DRAM burst
system.mem_ctrls.avgRdBW                       967.90                       # Average DRAM read bandwidth in MiByte/s
system.mem_ctrls.avgWrBW                         0.00                       # Average achieved write bandwidth in MiByte/s
system.mem_ctrls.avgRdBWSys                    968.28                       # Average system read bandwidth in MiByte/s
system.mem_ctrls.avgWrBWSys                      6.08                       # Average system write bandwidth in MiByte/s
system.mem_ctrls.peakBW                      12800.00                       # Theoretical peak bandwidth in MiByte/s
system.mem_ctrls.busUtil                         7.56                       # Data bus utilization in percentage
system.mem_ctrls.busUtilRead                     7.56                       # Data bus utilization in percentage for reads
system.mem_ctrls.busUtilWrite                    0.00                       # Data bus utilization in percentage for writes
system.mem_ctrls.avgRdQLen                       1.65                       # Average read queue length when enqueuing
system.mem_ctrls.avgWrQLen                       3.98                       # Average write queue length when enqueuing
system.mem_ctrls.readRowHits                     2081                       # Number of row buffer hits during reads
system.mem_ctrls.writeRowHits                       0                       # Number of row buffer hits during writes
system.mem_ctrls.readRowHitRate                 81.67                       # Row buffer hit rate for reads
system.mem_ctrls.writeRowHitRate                 0.00                       # Row buffer hit rate for writes
system.mem_ctrls.avgGap                      65667.25                       # Average gap between requests
system.mem_ctrls.pageHitRate                    81.16                       # Row buffer hit rate, read and write combined
system.mem_ctrls_0.actEnergy                  2714040                       # Energy for activate commands per rank (pJ)
system.mem_ctrls_0.preEnergy                  1480875                       # Energy for precharge commands per rank (pJ)
system.mem_ctrls_0.readEnergy                10966800                       # Energy for read commands per rank (pJ)
system.mem_ctrls_0.writeEnergy                      0                       # Energy for write commands per rank (pJ)
system.mem_ctrls_0.refreshEnergy             10679760                       # Energy for refresh commands per rank (pJ)
system.mem_ctrls_0.actBackEnergy             61516395                       # Energy for active background per rank (pJ)
system.mem_ctrls_0.preBackEnergy             44301000                       # Energy for precharge background per rank (pJ)
system.mem_ctrls_0.totalEnergy              131658870                       # Total energy per rank (pJ)
system.mem_ctrls_0.averagePower            803.919308                       # Core power per rank (mW)
system.mem_ctrls_0.memoryStateTime::IDLE     73032000                       # Time in different power states
system.mem_ctrls_0.memoryStateTime::REF       5460000                       # Time in different power states
system.mem_ctrls_0.memoryStateTime::PRE_PDN            0                       # Time in different power states
system.mem_ctrls_0.memoryStateTime::ACT      85293000                       # Time in different power states
system.mem_ctrls_0.memoryStateTime::ACT_PDN            0                       # Time in different power states
system.mem_ctrls_1.actEnergy                   687960                       # Energy for activate commands per rank (pJ)
system.mem_ctrls_1.preEnergy                   375375                       # Energy for precharge commands per rank (pJ)
system.mem_ctrls_1.readEnergy                 8486400                       # Energy for read commands per rank (pJ)
system.mem_ctrls_1.writeEnergy                      0                       # Energy for write commands per rank (pJ)
system.mem_ctrls_1.refreshEnergy             10679760                       # Energy for refresh commands per rank (pJ)
system.mem_ctrls_1.actBackEnergy             65180070                       # Energy for active background per rank (pJ)
system.mem_ctrls_1.preBackEnergy             41079000                       # Energy for precharge background per rank (pJ)
system.mem_ctrls_1.totalEnergy              126488565                       # Total energy per rank (pJ)
system.mem_ctrls_1.averagePower            772.413874                       # Core power per rank (mW)
system.mem_ctrls_1.memoryStateTime::IDLE     70234250                       # Time in different power states
system.mem_ctrls_1.memoryStateTime::REF       5460000                       # Time in different power states
system.mem_ctrls_1.memoryStateTime::PRE_PDN            0                       # Time in different power states
system.mem_ctrls_1.memoryStateTime::ACT      90704250                       # Time in different power states
system.mem_ctrls_1.memoryStateTime::ACT_PDN            0                       # Time in different power states
system.cpu00.branchPred.lookups                 34712                       # Number of BP lookups
system.cpu00.branchPred.condPredicted           31881                       # Number of conditional branches predicted
system.cpu00.branchPred.condIncorrect            1209                       # Number of conditional branches incorrect
system.cpu00.branchPred.BTBLookups              30471                       # Number of BTB lookups
system.cpu00.branchPred.BTBHits                 26661                       # Number of BTB hits
system.cpu00.branchPred.BTBCorrect                  0                       # Number of correct BTB predictions (this stat may not work properly.
system.cpu00.branchPred.BTBHitPct           87.496308                       # BTB Hit Percentage
system.cpu00.branchPred.usedRAS                  1161                       # Number of times the RAS was used to get a target.
system.cpu00.branchPred.RASInCorrect               12                       # Number of incorrect RAS predictions.
system.cpu_voltage_domain.voltage                   1                       # Voltage in Volts
system.cpu_clk_domain.clock                       500                       # Clock period in ticks
system.cpu00.dstage2_mmu.stage2_tlb.walker.walks            0                       # Table walker walks requested
system.cpu00.dstage2_mmu.stage2_tlb.walker.walkRequestOrigin_Requested::Data            0                       # Table walker requests started/completed, data/inst
system.cpu00.dstage2_mmu.stage2_tlb.walker.walkRequestOrigin_Requested::Inst            0                       # Table walker requests started/completed, data/inst
system.cpu00.dstage2_mmu.stage2_tlb.walker.walkRequestOrigin_Requested::total            0                       # Table walker requests started/completed, data/inst
system.cpu00.dstage2_mmu.stage2_tlb.walker.walkRequestOrigin_Completed::Data            0                       # Table walker requests started/completed, data/inst
system.cpu00.dstage2_mmu.stage2_tlb.walker.walkRequestOrigin_Completed::Inst            0                       # Table walker requests started/completed, data/inst
system.cpu00.dstage2_mmu.stage2_tlb.walker.walkRequestOrigin_Completed::total            0                       # Table walker requests started/completed, data/inst
system.cpu00.dstage2_mmu.stage2_tlb.walker.walkRequestOrigin::total            0                       # Table walker requests started/completed, data/inst
system.cpu00.dstage2_mmu.stage2_tlb.inst_hits            0                       # ITB inst hits
system.cpu00.dstage2_mmu.stage2_tlb.inst_misses            0                       # ITB inst misses
system.cpu00.dstage2_mmu.stage2_tlb.read_hits            0                       # DTB read hits
system.cpu00.dstage2_mmu.stage2_tlb.read_misses            0                       # DTB read misses
system.cpu00.dstage2_mmu.stage2_tlb.write_hits            0                       # DTB write hits
system.cpu00.dstage2_mmu.stage2_tlb.write_misses            0                       # DTB write misses
system.cpu00.dstage2_mmu.stage2_tlb.flush_tlb            0                       # Number of times complete TLB was flushed
system.cpu00.dstage2_mmu.stage2_tlb.flush_tlb_mva            0                       # Number of times TLB was flushed by MVA
system.cpu00.dstage2_mmu.stage2_tlb.flush_tlb_mva_asid            0                       # Number of times TLB was flushed by MVA & ASID
system.cpu00.dstage2_mmu.stage2_tlb.flush_tlb_asid            0                       # Number of times TLB was flushed by ASID
system.cpu00.dstage2_mmu.stage2_tlb.flush_entries            0                       # Number of entries that have been flushed from TLB
system.cpu00.dstage2_mmu.stage2_tlb.align_faults            0                       # Number of TLB faults due to alignment restrictions
system.cpu00.dstage2_mmu.stage2_tlb.prefetch_faults            0                       # Number of TLB faults due to prefetch
system.cpu00.dstage2_mmu.stage2_tlb.domain_faults            0                       # Number of TLB faults due to domain restrictions
system.cpu00.dstage2_mmu.stage2_tlb.perms_faults            0                       # Number of TLB faults due to permissions restrictions
system.cpu00.dstage2_mmu.stage2_tlb.read_accesses            0                       # DTB read accesses
system.cpu00.dstage2_mmu.stage2_tlb.write_accesses            0                       # DTB write accesses
system.cpu00.dstage2_mmu.stage2_tlb.inst_accesses            0                       # ITB inst accesses
system.cpu00.dstage2_mmu.stage2_tlb.hits            0                       # DTB hits
system.cpu00.dstage2_mmu.stage2_tlb.misses            0                       # DTB misses
system.cpu00.dstage2_mmu.stage2_tlb.accesses            0                       # DTB accesses
system.cpu00.dtb.walker.walks                       0                       # Table walker walks requested
system.cpu00.dtb.walker.walkRequestOrigin_Requested::Data            0                       # Table walker requests started/completed, data/inst
system.cpu00.dtb.walker.walkRequestOrigin_Requested::Inst            0                       # Table walker requests started/completed, data/inst
system.cpu00.dtb.walker.walkRequestOrigin_Requested::total            0                       # Table walker requests started/completed, data/inst
system.cpu00.dtb.walker.walkRequestOrigin_Completed::Data            0                       # Table walker requests started/completed, data/inst
system.cpu00.dtb.walker.walkRequestOrigin_Completed::Inst            0                       # Table walker requests started/completed, data/inst
system.cpu00.dtb.walker.walkRequestOrigin_Completed::total            0                       # Table walker requests started/completed, data/inst
system.cpu00.dtb.walker.walkRequestOrigin::total            0                       # Table walker requests started/completed, data/inst
system.cpu00.dtb.inst_hits                          0                       # ITB inst hits
system.cpu00.dtb.inst_misses                        0                       # ITB inst misses
system.cpu00.dtb.read_hits                          0                       # DTB read hits
system.cpu00.dtb.read_misses                        0                       # DTB read misses
system.cpu00.dtb.write_hits                         0                       # DTB write hits
system.cpu00.dtb.write_misses                       0                       # DTB write misses
system.cpu00.dtb.flush_tlb                          0                       # Number of times complete TLB was flushed
system.cpu00.dtb.flush_tlb_mva                      0                       # Number of times TLB was flushed by MVA
system.cpu00.dtb.flush_tlb_mva_asid                 0                       # Number of times TLB was flushed by MVA & ASID
system.cpu00.dtb.flush_tlb_asid                     0                       # Number of times TLB was flushed by ASID
system.cpu00.dtb.flush_entries                      0                       # Number of entries that have been flushed from TLB
system.cpu00.dtb.align_faults                       0                       # Number of TLB faults due to alignment restrictions
system.cpu00.dtb.prefetch_faults                    0                       # Number of TLB faults due to prefetch
system.cpu00.dtb.domain_faults                      0                       # Number of TLB faults due to domain restrictions
system.cpu00.dtb.perms_faults                       0                       # Number of TLB faults due to permissions restrictions
system.cpu00.dtb.read_accesses                      0                       # DTB read accesses
system.cpu00.dtb.write_accesses                     0                       # DTB write accesses
system.cpu00.dtb.inst_accesses                      0                       # ITB inst accesses
system.cpu00.dtb.hits                               0                       # DTB hits
system.cpu00.dtb.misses                             0                       # DTB misses
system.cpu00.dtb.accesses                           0                       # DTB accesses
system.cpu00.istage2_mmu.stage2_tlb.walker.walks            0                       # Table walker walks requested
system.cpu00.istage2_mmu.stage2_tlb.walker.walkRequestOrigin_Requested::Data            0                       # Table walker requests started/completed, data/inst
system.cpu00.istage2_mmu.stage2_tlb.walker.walkRequestOrigin_Requested::Inst            0                       # Table walker requests started/completed, data/inst
system.cpu00.istage2_mmu.stage2_tlb.walker.walkRequestOrigin_Requested::total            0                       # Table walker requests started/completed, data/inst
system.cpu00.istage2_mmu.stage2_tlb.walker.walkRequestOrigin_Completed::Data            0                       # Table walker requests started/completed, data/inst
system.cpu00.istage2_mmu.stage2_tlb.walker.walkRequestOrigin_Completed::Inst            0                       # Table walker requests started/completed, data/inst
system.cpu00.istage2_mmu.stage2_tlb.walker.walkRequestOrigin_Completed::total            0                       # Table walker requests started/completed, data/inst
system.cpu00.istage2_mmu.stage2_tlb.walker.walkRequestOrigin::total            0                       # Table walker requests started/completed, data/inst
system.cpu00.istage2_mmu.stage2_tlb.inst_hits            0                       # ITB inst hits
system.cpu00.istage2_mmu.stage2_tlb.inst_misses            0                       # ITB inst misses
system.cpu00.istage2_mmu.stage2_tlb.read_hits            0                       # DTB read hits
system.cpu00.istage2_mmu.stage2_tlb.read_misses            0                       # DTB read misses
system.cpu00.istage2_mmu.stage2_tlb.write_hits            0                       # DTB write hits
system.cpu00.istage2_mmu.stage2_tlb.write_misses            0                       # DTB write misses
system.cpu00.istage2_mmu.stage2_tlb.flush_tlb            0                       # Number of times complete TLB was flushed
system.cpu00.istage2_mmu.stage2_tlb.flush_tlb_mva            0                       # Number of times TLB was flushed by MVA
system.cpu00.istage2_mmu.stage2_tlb.flush_tlb_mva_asid            0                       # Number of times TLB was flushed by MVA & ASID
system.cpu00.istage2_mmu.stage2_tlb.flush_tlb_asid            0                       # Number of times TLB was flushed by ASID
system.cpu00.istage2_mmu.stage2_tlb.flush_entries            0                       # Number of entries that have been flushed from TLB
system.cpu00.istage2_mmu.stage2_tlb.align_faults            0                       # Number of TLB faults due to alignment restrictions
system.cpu00.istage2_mmu.stage2_tlb.prefetch_faults            0                       # Number of TLB faults due to prefetch
system.cpu00.istage2_mmu.stage2_tlb.domain_faults            0                       # Number of TLB faults due to domain restrictions
system.cpu00.istage2_mmu.stage2_tlb.perms_faults            0                       # Number of TLB faults due to permissions restrictions
system.cpu00.istage2_mmu.stage2_tlb.read_accesses            0                       # DTB read accesses
system.cpu00.istage2_mmu.stage2_tlb.write_accesses            0                       # DTB write accesses
system.cpu00.istage2_mmu.stage2_tlb.inst_accesses            0                       # ITB inst accesses
system.cpu00.istage2_mmu.stage2_tlb.hits            0                       # DTB hits
system.cpu00.istage2_mmu.stage2_tlb.misses            0                       # DTB misses
system.cpu00.istage2_mmu.stage2_tlb.accesses            0                       # DTB accesses
system.cpu00.itb.walker.walks                       0                       # Table walker walks requested
system.cpu00.itb.walker.walkRequestOrigin_Requested::Data            0                       # Table walker requests started/completed, data/inst
system.cpu00.itb.walker.walkRequestOrigin_Requested::Inst            0                       # Table walker requests started/completed, data/inst
system.cpu00.itb.walker.walkRequestOrigin_Requested::total            0                       # Table walker requests started/completed, data/inst
system.cpu00.itb.walker.walkRequestOrigin_Completed::Data            0                       # Table walker requests started/completed, data/inst
system.cpu00.itb.walker.walkRequestOrigin_Completed::Inst            0                       # Table walker requests started/completed, data/inst
system.cpu00.itb.walker.walkRequestOrigin_Completed::total            0                       # Table walker requests started/completed, data/inst
system.cpu00.itb.walker.walkRequestOrigin::total            0                       # Table walker requests started/completed, data/inst
system.cpu00.itb.inst_hits                          0                       # ITB inst hits
system.cpu00.itb.inst_misses                        0                       # ITB inst misses
system.cpu00.itb.read_hits                          0                       # DTB read hits
system.cpu00.itb.read_misses                        0                       # DTB read misses
system.cpu00.itb.write_hits                         0                       # DTB write hits
system.cpu00.itb.write_misses                       0                       # DTB write misses
system.cpu00.itb.flush_tlb                          0                       # Number of times complete TLB was flushed
system.cpu00.itb.flush_tlb_mva                      0                       # Number of times TLB was flushed by MVA
system.cpu00.itb.flush_tlb_mva_asid                 0                       # Number of times TLB was flushed by MVA & ASID
system.cpu00.itb.flush_tlb_asid                     0                       # Number of times TLB was flushed by ASID
system.cpu00.itb.flush_entries                      0                       # Number of entries that have been flushed from TLB
system.cpu00.itb.align_faults                       0                       # Number of TLB faults due to alignment restrictions
system.cpu00.itb.prefetch_faults                    0                       # Number of TLB faults due to prefetch
system.cpu00.itb.domain_faults                      0                       # Number of TLB faults due to domain restrictions
system.cpu00.itb.perms_faults                       0                       # Number of TLB faults due to permissions restrictions
system.cpu00.itb.read_accesses                      0                       # DTB read accesses
system.cpu00.itb.write_accesses                     0                       # DTB write accesses
system.cpu00.itb.inst_accesses                      0                       # ITB inst accesses
system.cpu00.itb.hits                               0                       # DTB hits
system.cpu00.itb.misses                             0                       # DTB misses
system.cpu00.itb.accesses                           0                       # DTB accesses
system.cpu00.workload.num_syscalls               1000                       # Number of system calls
system.cpu00.numCycles                         336961                       # number of cpu cycles simulated
system.cpu00.numWorkItemsStarted                    0                       # number of work items this cpu started
system.cpu00.numWorkItemsCompleted                  0                       # number of work items this cpu completed
system.cpu00.fetch.icacheStallCycles            48351                       # Number of cycles fetch is stalled on an Icache miss
system.cpu00.fetch.Insts                       322772                       # Number of instructions fetch has processed
system.cpu00.fetch.Branches                     34712                       # Number of branches that fetch encountered
system.cpu00.fetch.predictedBranches            27822                       # Number of branches that fetch has predicted taken
system.cpu00.fetch.Cycles                      245395                       # Number of cycles fetch has run and was not squashing or blocked
system.cpu00.fetch.SquashCycles                  2659                       # Number of cycles fetch has spent squashing
system.cpu00.fetch.PendingTrapStallCycles            4                       # Number of stall cycles due to pending traps
system.cpu00.fetch.CacheLines                   34472                       # Number of cache lines fetched
system.cpu00.fetch.IcacheSquashes                 676                       # Number of outstanding Icache misses that were squashed
system.cpu00.fetch.rateDist::samples           295079                       # Number of instructions fetched each cycle (Total)
system.cpu00.fetch.rateDist::mean            1.210361                       # Number of instructions fetched each cycle (Total)
system.cpu00.fetch.rateDist::stdev           2.524709                       # Number of instructions fetched each cycle (Total)
system.cpu00.fetch.rateDist::underflows             0      0.00%      0.00% # Number of instructions fetched each cycle (Total)
system.cpu00.fetch.rateDist::0                 228598     77.47%     77.47% # Number of instructions fetched each cycle (Total)
system.cpu00.fetch.rateDist::1                   5460      1.85%     79.32% # Number of instructions fetched each cycle (Total)
system.cpu00.fetch.rateDist::2                   7421      2.51%     81.84% # Number of instructions fetched each cycle (Total)
system.cpu00.fetch.rateDist::3                   3806      1.29%     83.13% # Number of instructions fetched each cycle (Total)
system.cpu00.fetch.rateDist::4                   9620      3.26%     86.39% # Number of instructions fetched each cycle (Total)
system.cpu00.fetch.rateDist::5                   2947      1.00%     87.38% # Number of instructions fetched each cycle (Total)
system.cpu00.fetch.rateDist::6                   8810      2.99%     90.37% # Number of instructions fetched each cycle (Total)
system.cpu00.fetch.rateDist::7                   7979      2.70%     93.07% # Number of instructions fetched each cycle (Total)
system.cpu00.fetch.rateDist::8                  20438      6.93%    100.00% # Number of instructions fetched each cycle (Total)
system.cpu00.fetch.rateDist::overflows              0      0.00%    100.00% # Number of instructions fetched each cycle (Total)
system.cpu00.fetch.rateDist::min_value              0                       # Number of instructions fetched each cycle (Total)
system.cpu00.fetch.rateDist::max_value              8                       # Number of instructions fetched each cycle (Total)
system.cpu00.fetch.rateDist::total             295079                       # Number of instructions fetched each cycle (Total)
system.cpu00.fetch.branchRate                0.103015                       # Number of branch fetches per cycle
system.cpu00.fetch.rate                      0.957891                       # Number of inst fetches per cycle
system.cpu00.decode.IdleCycles                  28980                       # Number of cycles decode is idle
system.cpu00.decode.BlockedCycles              219572                       # Number of cycles decode is blocked
system.cpu00.decode.RunCycles                   16209                       # Number of cycles decode is running
system.cpu00.decode.UnblockCycles               29297                       # Number of cycles decode is unblocking
system.cpu00.decode.SquashCycles                 1021                       # Number of cycles decode is squashing
system.cpu00.decode.BranchResolved               1220                       # Number of times decode resolved a branch
system.cpu00.decode.BranchMispred                 319                       # Number of times decode detected a branch misprediction
system.cpu00.decode.DecodedInsts               336017                       # Number of instructions handled by decode
system.cpu00.decode.SquashedInsts                1177                       # Number of squashed instructions handled by decode
system.cpu00.rename.SquashCycles                 1021                       # Number of cycles rename is squashing
system.cpu00.rename.IdleCycles                  39233                       # Number of cycles rename is idle
system.cpu00.rename.BlockCycles                  8876                       # Number of cycles rename is blocking
system.cpu00.rename.serializeStallCycles        22987                       # count of cycles rename stalled for serializing inst
system.cpu00.rename.RunCycles                   35119                       # Number of cycles rename is running
system.cpu00.rename.UnblockCycles              187843                       # Number of cycles rename is unblocking
system.cpu00.rename.RenamedInsts               332951                       # Number of instructions processed by rename
system.cpu00.rename.ROBFullEvents                   4                       # Number of times rename has blocked due to ROB full
system.cpu00.rename.IQFullEvents                62624                       # Number of times rename has blocked due to IQ full
system.cpu00.rename.LQFullEvents                 1799                       # Number of times rename has blocked due to LQ full
system.cpu00.rename.SQFullEvents               119955                       # Number of times rename has blocked due to SQ full
system.cpu00.rename.RenamedOperands            391026                       # Number of destination operands rename has renamed
system.cpu00.rename.RenameLookups             1661577                       # Number of register rename lookups that rename has made
system.cpu00.rename.int_rename_lookups         529796                       # Number of integer rename lookups
system.cpu00.rename.fp_rename_lookups              22                       # Number of floating rename lookups
system.cpu00.rename.CommittedMaps              350803                       # Number of HB maps that are committed
system.cpu00.rename.UndoneMaps                  40223                       # Number of HB maps that are undone due to squashing
system.cpu00.rename.serializingInsts              210                       # count of serializing insts renamed
system.cpu00.rename.tempSerializingInsts          210                       # count of temporary serializing insts renamed
system.cpu00.rename.skidInsts                  145588                       # count of insts added to the skid buffer
system.cpu00.memDep0.insertedLoads              44389                       # Number of loads inserted to the mem dependence unit.
system.cpu00.memDep0.insertedStores             50093                       # Number of stores inserted to the mem dependence unit.
system.cpu00.memDep0.conflictingLoads             892                       # Number of conflicting loads.
system.cpu00.memDep0.conflictingStores            480                       # Number of conflicting stores.
system.cpu00.iq.iqInstsAdded                   329132                       # Number of instructions added to the IQ (excludes non-spec)
system.cpu00.iq.iqNonSpecInstsAdded               362                       # Number of non-speculative instructions added to the IQ
system.cpu00.iq.iqInstsIssued                  303169                       # Number of instructions issued
system.cpu00.iq.iqSquashedInstsIssued            2328                       # Number of squashed instructions issued
system.cpu00.iq.iqSquashedInstsExamined         31843                       # Number of squashed instructions iterated over during squash; mainly for profiling
system.cpu00.iq.iqSquashedOperandsExamined       129652                       # Number of squashed operands that are examined and possibly removed from graph
system.cpu00.iq.iqSquashedNonSpecRemoved           88                       # Number of squashed non-spec instructions that were removed
system.cpu00.iq.issued_per_cycle::samples       295079                       # Number of insts issued each cycle
system.cpu00.iq.issued_per_cycle::mean       1.027416                       # Number of insts issued each cycle
system.cpu00.iq.issued_per_cycle::stdev      0.985062                       # Number of insts issued each cycle
system.cpu00.iq.issued_per_cycle::underflows            0      0.00%      0.00% # Number of insts issued each cycle
system.cpu00.iq.issued_per_cycle::0            139230     47.18%     47.18% # Number of insts issued each cycle
system.cpu00.iq.issued_per_cycle::1              8529      2.89%     50.07% # Number of insts issued each cycle
system.cpu00.iq.issued_per_cycle::2            147320     49.93%    100.00% # Number of insts issued each cycle
system.cpu00.iq.issued_per_cycle::overflows            0      0.00%    100.00% # Number of insts issued each cycle
system.cpu00.iq.issued_per_cycle::min_value            0                       # Number of insts issued each cycle
system.cpu00.iq.issued_per_cycle::max_value            2                       # Number of insts issued each cycle
system.cpu00.iq.issued_per_cycle::total        295079                       # Number of insts issued each cycle
system.cpu00.iq.fu_full::No_OpClass                 0                       # attempts to use FU when none available
system.cpu00.iq.fu_full::IntAlu                     0                       # attempts to use FU when none available
system.cpu00.iq.fu_full::IntMult                    0                       # attempts to use FU when none available
system.cpu00.iq.fu_full::IntDiv                     0                       # attempts to use FU when none available
system.cpu00.iq.fu_full::FloatAdd                   0                       # attempts to use FU when none available
system.cpu00.iq.fu_full::FloatCmp                   0                       # attempts to use FU when none available
system.cpu00.iq.fu_full::FloatCvt                   0                       # attempts to use FU when none available
system.cpu00.iq.fu_full::FloatMult                  0                       # attempts to use FU when none available
system.cpu00.iq.fu_full::FloatDiv                   0                       # attempts to use FU when none available
system.cpu00.iq.fu_full::FloatSqrt                  0                       # attempts to use FU when none available
system.cpu00.iq.fu_full::SimdAdd                    0                       # attempts to use FU when none available
system.cpu00.iq.fu_full::SimdAddAcc                 0                       # attempts to use FU when none available
system.cpu00.iq.fu_full::SimdAlu                    0                       # attempts to use FU when none available
system.cpu00.iq.fu_full::SimdCmp                    0                       # attempts to use FU when none available
system.cpu00.iq.fu_full::SimdCvt                    0                       # attempts to use FU when none available
system.cpu00.iq.fu_full::SimdMisc                   0                       # attempts to use FU when none available
system.cpu00.iq.fu_full::SimdMult                   0                       # attempts to use FU when none available
system.cpu00.iq.fu_full::SimdMultAcc                0                       # attempts to use FU when none available
system.cpu00.iq.fu_full::SimdShift                  0                       # attempts to use FU when none available
system.cpu00.iq.fu_full::SimdShiftAcc               0                       # attempts to use FU when none available
system.cpu00.iq.fu_full::SimdSqrt                   0                       # attempts to use FU when none available
system.cpu00.iq.fu_full::SimdFloatAdd               0                       # attempts to use FU when none available
system.cpu00.iq.fu_full::SimdFloatAlu               0                       # attempts to use FU when none available
[...]
system.tol2bus.snoop_fanout::3                      0      0.00%      0.00% # Request fanout histogram
system.tol2bus.snoop_fanout::4                      0      0.00%      0.00% # Request fanout histogram
system.tol2bus.snoop_fanout::5                      0      0.00%      0.00% # Request fanout histogram
system.tol2bus.snoop_fanout::6                      0      0.00%      0.00% # Request fanout histogram
system.tol2bus.snoop_fanout::7                      0      0.00%      0.00% # Request fanout histogram
system.tol2bus.snoop_fanout::8                      0      0.00%      0.00% # Request fanout histogram
system.tol2bus.snoop_fanout::9                      0      0.00%      0.00% # Request fanout histogram
system.tol2bus.snoop_fanout::10                     0      0.00%      0.00% # Request fanout histogram
system.tol2bus.snoop_fanout::11                     0      0.00%      0.00% # Request fanout histogram
system.tol2bus.snoop_fanout::12                     0      0.00%      0.00% # Request fanout histogram
system.tol2bus.snoop_fanout::13                     0      0.00%      0.00% # Request fanout histogram
system.tol2bus.snoop_fanout::14                     0      0.00%      0.00% # Request fanout histogram
system.tol2bus.snoop_fanout::15                     0      0.00%      0.00% # Request fanout histogram
system.tol2bus.snoop_fanout::16                     0      0.00%      0.00% # Request fanout histogram
system.tol2bus.snoop_fanout::17                     0      0.00%      0.00% # Request fanout histogram
system.tol2bus.snoop_fanout::18                     0      0.00%      0.00% # Request fanout histogram
system.tol2bus.snoop_fanout::19                     0      0.00%      0.00% # Request fanout histogram
system.tol2bus.snoop_fanout::20                     0      0.00%      0.00% # Request fanout histogram
system.tol2bus.snoop_fanout::21                     0      0.00%      0.00% # Request fanout histogram
system.tol2bus.snoop_fanout::22                     0      0.00%      0.00% # Request fanout histogram
system.tol2bus.snoop_fanout::23                     0      0.00%      0.00% # Request fanout histogram
system.tol2bus.snoop_fanout::24                     0      0.00%      0.00% # Request fanout histogram
system.tol2bus.snoop_fanout::25                     0      0.00%      0.00% # Request fanout histogram
system.tol2bus.snoop_fanout::26                     0      0.00%      0.00% # Request fanout histogram
system.tol2bus.snoop_fanout::27                     0      0.00%      0.00% # Request fanout histogram
system.tol2bus.snoop_fanout::28                     0      0.00%      0.00% # Request fanout histogram
system.tol2bus.snoop_fanout::29                     0      0.00%      0.00% # Request fanout histogram
system.tol2bus.snoop_fanout::30                     0      0.00%      0.00% # Request fanout histogram
system.tol2bus.snoop_fanout::31                     0      0.00%      0.00% # Request fanout histogram
system.tol2bus.snoop_fanout::32                     0      0.00%      0.00% # Request fanout histogram
system.tol2bus.snoop_fanout::33                     0      0.00%      0.00% # Request fanout histogram
system.tol2bus.snoop_fanout::34                     0      0.00%      0.00% # Request fanout histogram
system.tol2bus.snoop_fanout::35                     0      0.00%      0.00% # Request fanout histogram
system.tol2bus.snoop_fanout::36                     0      0.00%      0.00% # Request fanout histogram
system.tol2bus.snoop_fanout::37                     0      0.00%      0.00% # Request fanout histogram
system.tol2bus.snoop_fanout::38                     0      0.00%      0.00% # Request fanout histogram
system.tol2bus.snoop_fanout::39                     0      0.00%      0.00% # Request fanout histogram
system.tol2bus.snoop_fanout::40                     0      0.00%      0.00% # Request fanout histogram
system.tol2bus.snoop_fanout::41                     0      0.00%      0.00% # Request fanout histogram
system.tol2bus.snoop_fanout::42                     0      0.00%      0.00% # Request fanout histogram
system.tol2bus.snoop_fanout::43                     0      0.00%      0.00% # Request fanout histogram
system.tol2bus.snoop_fanout::44                     0      0.00%      0.00% # Request fanout histogram
system.tol2bus.snoop_fanout::45                     0      0.00%      0.00% # Request fanout histogram
system.tol2bus.snoop_fanout::46                     0      0.00%      0.00% # Request fanout histogram
system.tol2bus.snoop_fanout::47                     0      0.00%      0.00% # Request fanout histogram
system.tol2bus.snoop_fanout::48                     0      0.00%      0.00% # Request fanout histogram
system.tol2bus.snoop_fanout::49                     0      0.00%      0.00% # Request fanout histogram
system.tol2bus.snoop_fanout::50                     0      0.00%      0.00% # Request fanout histogram
system.tol2bus.snoop_fanout::51                     0      0.00%      0.00% # Request fanout histogram
system.tol2bus.snoop_fanout::52                     0      0.00%      0.00% # Request fanout histogram
system.tol2bus.snoop_fanout::53                     0      0.00%      0.00% # Request fanout histogram
system.tol2bus.snoop_fanout::54                     0      0.00%      0.00% # Request fanout histogram
system.tol2bus.snoop_fanout::55                     0      0.00%      0.00% # Request fanout histogram
system.tol2bus.snoop_fanout::56                     0      0.00%      0.00% # Request fanout histogram
system.tol2bus.snoop_fanout::57                     0      0.00%      0.00% # Request fanout histogram
system.tol2bus.snoop_fanout::58                     0      0.00%      0.00% # Request fanout histogram
system.tol2bus.snoop_fanout::59                     0      0.00%      0.00% # Request fanout histogram
system.tol2bus.snoop_fanout::60                     0      0.00%      0.00% # Request fanout histogram
system.tol2bus.snoop_fanout::61                     0      0.00%      0.00% # Request fanout histogram
system.tol2bus.snoop_fanout::62                     0      0.00%      0.00% # Request fanout histogram
system.tol2bus.snoop_fanout::63                 41129    100.00%    100.00% # Request fanout histogram
system.tol2bus.snoop_fanout::64                     0      0.00%    100.00% # Request fanout histogram
system.tol2bus.snoop_fanout::overflows              0      0.00%    100.00% # Request fanout histogram
system.tol2bus.snoop_fanout::min_value             63                       # Request fanout histogram
system.tol2bus.snoop_fanout::max_value             63                       # Request fanout histogram
system.tol2bus.snoop_fanout::total              41129                       # Request fanout histogram
system.tol2bus.reqLayer0.occupancy           27124482                       # Layer occupancy (ticks)
system.tol2bus.reqLayer0.utilization             16.1                       # Layer utilization (%)
system.tol2bus.respLayer0.occupancy           1010960                       # Layer occupancy (ticks)
system.tol2bus.respLayer0.utilization             0.6                       # Layer utilization (%)
system.tol2bus.respLayer1.occupancy           5421485                       # Layer occupancy (ticks)
system.tol2bus.respLayer1.utilization             3.2                       # Layer utilization (%)
system.tol2bus.respLayer4.occupancy             81997                       # Layer occupancy (ticks)
system.tol2bus.respLayer4.utilization             0.0                       # Layer utilization (%)
system.tol2bus.respLayer5.occupancy           1292461                       # Layer occupancy (ticks)
system.tol2bus.respLayer5.utilization             0.8                       # Layer utilization (%)
system.tol2bus.respLayer8.occupancy             84977                       # Layer occupancy (ticks)
system.tol2bus.respLayer8.utilization             0.1                       # Layer utilization (%)
system.tol2bus.respLayer9.occupancy           1403934                       # Layer occupancy (ticks)
system.tol2bus.respLayer9.utilization             0.8                       # Layer utilization (%)
system.tol2bus.respLayer12.occupancy            82717                       # Layer occupancy (ticks)
system.tol2bus.respLayer12.utilization            0.0                       # Layer utilization (%)
system.tol2bus.respLayer13.occupancy          1375725                       # Layer occupancy (ticks)
system.tol2bus.respLayer13.utilization            0.8                       # Layer utilization (%)
system.tol2bus.respLayer16.occupancy            79495                       # Layer occupancy (ticks)
system.tol2bus.respLayer16.utilization            0.0                       # Layer utilization (%)
system.tol2bus.respLayer17.occupancy          1434343                       # Layer occupancy (ticks)
system.tol2bus.respLayer17.utilization            0.9                       # Layer utilization (%)
system.tol2bus.respLayer20.occupancy            79500                       # Layer occupancy (ticks)
system.tol2bus.respLayer20.utilization            0.0                       # Layer utilization (%)
system.tol2bus.respLayer21.occupancy          1427180                       # Layer occupancy (ticks)
system.tol2bus.respLayer21.utilization            0.8                       # Layer utilization (%)
system.tol2bus.respLayer24.occupancy            85951                       # Layer occupancy (ticks)
system.tol2bus.respLayer24.utilization            0.1                       # Layer utilization (%)
system.tol2bus.respLayer25.occupancy          1439088                       # Layer occupancy (ticks)
system.tol2bus.respLayer25.utilization            0.9                       # Layer utilization (%)
system.tol2bus.respLayer28.occupancy            84951                       # Layer occupancy (ticks)
system.tol2bus.respLayer28.utilization            0.1                       # Layer utilization (%)
system.tol2bus.respLayer29.occupancy          1448758                       # Layer occupancy (ticks)
system.tol2bus.respLayer29.utilization            0.9                       # Layer utilization (%)
system.tol2bus.respLayer32.occupancy            79991                       # Layer occupancy (ticks)
system.tol2bus.respLayer32.utilization            0.0                       # Layer utilization (%)
system.tol2bus.respLayer33.occupancy          1406913                       # Layer occupancy (ticks)
system.tol2bus.respLayer33.utilization            0.8                       # Layer utilization (%)
system.tol2bus.respLayer36.occupancy            85437                       # Layer occupancy (ticks)
system.tol2bus.respLayer36.utilization            0.1                       # Layer utilization (%)
system.tol2bus.respLayer37.occupancy          1393921                       # Layer occupancy (ticks)
system.tol2bus.respLayer37.utilization            0.8                       # Layer utilization (%)
system.tol2bus.respLayer40.occupancy            82983                       # Layer occupancy (ticks)
system.tol2bus.respLayer40.utilization            0.0                       # Layer utilization (%)
system.tol2bus.respLayer41.occupancy          1410646                       # Layer occupancy (ticks)
system.tol2bus.respLayer41.utilization            0.8                       # Layer utilization (%)
system.tol2bus.respLayer44.occupancy            84474                       # Layer occupancy (ticks)
system.tol2bus.respLayer44.utilization            0.1                       # Layer utilization (%)
system.tol2bus.respLayer45.occupancy          1394431                       # Layer occupancy (ticks)
system.tol2bus.respLayer45.utilization            0.8                       # Layer utilization (%)
system.tol2bus.respLayer48.occupancy            79751                       # Layer occupancy (ticks)
system.tol2bus.respLayer48.utilization            0.0                       # Layer utilization (%)
system.tol2bus.respLayer49.occupancy          1407688                       # Layer occupancy (ticks)
system.tol2bus.respLayer49.utilization            0.8                       # Layer utilization (%)
system.tol2bus.respLayer52.occupancy            82468                       # Layer occupancy (ticks)
system.tol2bus.respLayer52.utilization            0.0                       # Layer utilization (%)
system.tol2bus.respLayer53.occupancy          1437349                       # Layer occupancy (ticks)
system.tol2bus.respLayer53.utilization            0.9                       # Layer utilization (%)
system.tol2bus.respLayer56.occupancy            86949                       # Layer occupancy (ticks)
system.tol2bus.respLayer56.utilization            0.1                       # Layer utilization (%)
system.tol2bus.respLayer57.occupancy          1432587                       # Layer occupancy (ticks)
system.tol2bus.respLayer57.utilization            0.9                       # Layer utilization (%)
system.tol2bus.respLayer60.occupancy            85953                       # Layer occupancy (ticks)
system.tol2bus.respLayer60.utilization            0.1                       # Layer utilization (%)
system.tol2bus.respLayer61.occupancy          1401861                       # Layer occupancy (ticks)
system.tol2bus.respLayer61.utilization            0.8                       # Layer utilization (%)
system.tol2bus.respLayer64.occupancy            82487                       # Layer occupancy (ticks)
system.tol2bus.respLayer64.utilization            0.0                       # Layer utilization (%)
system.tol2bus.respLayer65.occupancy          1399409                       # Layer occupancy (ticks)
system.tol2bus.respLayer65.utilization            0.8                       # Layer utilization (%)
system.tol2bus.respLayer68.occupancy            82482                       # Layer occupancy (ticks)
system.tol2bus.respLayer68.utilization            0.0                       # Layer utilization (%)
system.tol2bus.respLayer69.occupancy          1416891                       # Layer occupancy (ticks)
system.tol2bus.respLayer69.utilization            0.8                       # Layer utilization (%)
system.tol2bus.respLayer72.occupancy            81994                       # Layer occupancy (ticks)
system.tol2bus.respLayer72.utilization            0.0                       # Layer utilization (%)
system.tol2bus.respLayer73.occupancy          1434545                       # Layer occupancy (ticks)
system.tol2bus.respLayer73.utilization            0.9                       # Layer utilization (%)
system.tol2bus.respLayer76.occupancy            85450                       # Layer occupancy (ticks)
system.tol2bus.respLayer76.utilization            0.1                       # Layer utilization (%)
system.tol2bus.respLayer77.occupancy          1398617                       # Layer occupancy (ticks)
system.tol2bus.respLayer77.utilization            0.8                       # Layer utilization (%)
system.tol2bus.respLayer80.occupancy            85954                       # Layer occupancy (ticks)
system.tol2bus.respLayer80.utilization            0.1                       # Layer utilization (%)
system.tol2bus.respLayer81.occupancy          1427355                       # Layer occupancy (ticks)
system.tol2bus.respLayer81.utilization            0.8                       # Layer utilization (%)
system.tol2bus.respLayer84.occupancy            86446                       # Layer occupancy (ticks)
system.tol2bus.respLayer84.utilization            0.1                       # Layer utilization (%)
system.tol2bus.respLayer85.occupancy          1424891                       # Layer occupancy (ticks)
system.tol2bus.respLayer85.utilization            0.8                       # Layer utilization (%)
system.tol2bus.respLayer88.occupancy            81001                       # Layer occupancy (ticks)
system.tol2bus.respLayer88.utilization            0.0                       # Layer utilization (%)
system.tol2bus.respLayer89.occupancy          1388155                       # Layer occupancy (ticks)
system.tol2bus.respLayer89.utilization            0.8                       # Layer utilization (%)
system.tol2bus.respLayer92.occupancy            87457                       # Layer occupancy (ticks)
system.tol2bus.respLayer92.utilization            0.1                       # Layer utilization (%)
system.tol2bus.respLayer93.occupancy          1419407                       # Layer occupancy (ticks)
system.tol2bus.respLayer93.utilization            0.8                       # Layer utilization (%)
system.tol2bus.respLayer96.occupancy            86463                       # Layer occupancy (ticks)
system.tol2bus.respLayer96.utilization            0.1                       # Layer utilization (%)
system.tol2bus.respLayer97.occupancy          1391141                       # Layer occupancy (ticks)
system.tol2bus.respLayer97.utilization            0.8                       # Layer utilization (%)
system.tol2bus.respLayer100.occupancy           85217                       # Layer occupancy (ticks)
system.tol2bus.respLayer100.utilization           0.1                       # Layer utilization (%)
system.tol2bus.respLayer101.occupancy         1432151                       # Layer occupancy (ticks)
system.tol2bus.respLayer101.utilization           0.9                       # Layer utilization (%)
system.tol2bus.respLayer104.occupancy           85247                       # Layer occupancy (ticks)
system.tol2bus.respLayer104.utilization           0.1                       # Layer utilization (%)
system.tol2bus.respLayer105.occupancy         1368230                       # Layer occupancy (ticks)
system.tol2bus.respLayer105.utilization           0.8                       # Layer utilization (%)
system.tol2bus.respLayer108.occupancy           84997                       # Layer occupancy (ticks)
system.tol2bus.respLayer108.utilization           0.1                       # Layer utilization (%)
system.tol2bus.respLayer109.occupancy         1368223                       # Layer occupancy (ticks)
system.tol2bus.respLayer109.utilization           0.8                       # Layer utilization (%)
system.tol2bus.respLayer112.occupancy           84998                       # Layer occupancy (ticks)
system.tol2bus.respLayer112.utilization           0.1                       # Layer utilization (%)
system.tol2bus.respLayer113.occupancy         1372211                       # Layer occupancy (ticks)
system.tol2bus.respLayer113.utilization           0.8                       # Layer utilization (%)
system.tol2bus.respLayer116.occupancy           87749                       # Layer occupancy (ticks)
system.tol2bus.respLayer116.utilization           0.1                       # Layer utilization (%)
system.tol2bus.respLayer117.occupancy         1379981                       # Layer occupancy (ticks)
system.tol2bus.respLayer117.utilization           0.8                       # Layer utilization (%)
system.tol2bus.respLayer120.occupancy           79500                       # Layer occupancy (ticks)
system.tol2bus.respLayer120.utilization           0.0                       # Layer utilization (%)
system.tol2bus.respLayer121.occupancy         1409641                       # Layer occupancy (ticks)
system.tol2bus.respLayer121.utilization           0.8                       # Layer utilization (%)
system.tol2bus.respLayer124.occupancy           76750                       # Layer occupancy (ticks)
system.tol2bus.respLayer124.utilization           0.0                       # Layer utilization (%)
system.tol2bus.respLayer125.occupancy         1418152                       # Layer occupancy (ticks)
system.tol2bus.respLayer125.utilization           0.8                       # Layer utilization (%)

---------- End Simulation Statistics   ----------
