
---------- Begin Simulation Statistics ----------
sim_seconds                                  0.000171                       # Number of seconds simulated
sim_ticks                                   170767000                       # Number of ticks simulated
final_tick                                  170767000                       # Number of ticks from beginning of simulation (restored from checkpoints and never reset)
sim_freq                                 1000000000000                       # Frequency of simulated ticks
host_inst_rate                                 168790                       # Simulator instruction rate (inst/s)
host_op_rate                                   170121                       # Simulator op (including micro ops) rate (op/s)
host_tick_rate                                5742842                       # Simulator tick rate (ticks/s)
host_mem_usage                                 892960                       # Number of bytes of host memory used
host_seconds                                    29.74                       # Real time elapsed on the host
sim_insts                                     5019056                       # Number of instructions simulated
sim_ops                                       5058648                       # Number of ops (including micro ops) simulated
system.voltage_domain.voltage                       1                       # Voltage in Volts
system.clk_domain.clock                          1000                       # Clock period in ticks
system.mem_ctrls.bytes_read::cpu00.inst         35200                       # Number of bytes read from this memory
system.mem_ctrls.bytes_read::cpu00.data        121024                       # Number of bytes read from this memory
system.mem_ctrls.bytes_read::cpu01.inst          1472                       # Number of bytes read from this memory
system.mem_ctrls.bytes_read::cpu01.data           320                       # Number of bytes read from this memory
system.mem_ctrls.bytes_read::cpu02.inst           128                       # Number of bytes read from this memory
system.mem_ctrls.bytes_read::cpu02.data           256                       # Number of bytes read from this memory
system.mem_ctrls.bytes_read::cpu03.data           256                       # Number of bytes read from this memory
system.mem_ctrls.bytes_read::cpu04.inst            64                       # Number of bytes read from this memory
system.mem_ctrls.bytes_read::cpu04.data           256                       # Number of bytes read from this memory
system.mem_ctrls.bytes_read::cpu05.data           256                       # Number of bytes read from this memory
system.mem_ctrls.bytes_read::cpu06.data           256                       # Number of bytes read from this memory
system.mem_ctrls.bytes_read::cpu07.data           320                       # Number of bytes read from this memory
system.mem_ctrls.bytes_read::cpu08.inst           256                       # Number of bytes read from this memory
system.mem_ctrls.bytes_read::cpu08.data           256                       # Number of bytes read from this memory
system.mem_ctrls.bytes_read::cpu09.data           256                       # Number of bytes read from this memory
system.mem_ctrls.bytes_read::cpu10.data           256                       # Number of bytes read from this memory
system.mem_ctrls.bytes_read::cpu11.data           256                       # Number of bytes read from this memory
system.mem_ctrls.bytes_read::cpu12.data           384                       # Number of bytes read from this memory
system.mem_ctrls.bytes_read::cpu13.data           256                       # Number of bytes read from this memory
system.mem_ctrls.bytes_read::cpu14.data           256                       # Number of bytes read from this memory
system.mem_ctrls.bytes_read::cpu15.data           256                       # Number of bytes read from this memory
system.mem_ctrls.bytes_read::cpu16.inst            64                       # Number of bytes read from this memory
system.mem_ctrls.bytes_read::cpu16.data           256                       # Number of bytes read from this memory
system.mem_ctrls.bytes_read::cpu17.data           256                       # Number of bytes read from this memory
system.mem_ctrls.bytes_read::cpu18.data           256                       # Number of bytes read from this memory
system.mem_ctrls.bytes_read::cpu19.inst            64                       # Number of bytes read from this memory
system.mem_ctrls.bytes_read::cpu19.data           256                       # Number of bytes read from this memory
system.mem_ctrls.bytes_read::cpu20.data           256                       # Number of bytes read from this memory
system.mem_ctrls.bytes_read::cpu21.data           256                       # Number of bytes read from this memory
system.mem_ctrls.bytes_read::cpu22.data           256                       # Number of bytes read from this memory
system.mem_ctrls.bytes_read::cpu23.inst            64                       # Number of bytes read from this memory
system.mem_ctrls.bytes_read::cpu23.data           320                       # Number of bytes read from this memory
system.mem_ctrls.bytes_read::cpu24.data           256                       # Number of bytes read from this memory
system.mem_ctrls.bytes_read::cpu25.data           256                       # Number of bytes read from this memory
system.mem_ctrls.bytes_read::cpu26.data           256                       # Number of bytes read from this memory
system.mem_ctrls.bytes_read::cpu27.data           256                       # Number of bytes read from this memory
system.mem_ctrls.bytes_read::cpu28.data           320                       # Number of bytes read from this memory
system.mem_ctrls.bytes_read::cpu29.data           256                       # Number of bytes read from this memory
system.mem_ctrls.bytes_read::cpu30.data           256                       # Number of bytes read from this memory
system.mem_ctrls.bytes_read::cpu31.inst            64                       # Number of bytes read from this memory
system.mem_ctrls.bytes_read::cpu31.data           256                       # Number of bytes read from this memory
system.mem_ctrls.bytes_read::total             166720                       # Number of bytes read from this memory
system.mem_ctrls.bytes_inst_read::cpu00.inst        35200                       # Number of instructions bytes read from this memory
system.mem_ctrls.bytes_inst_read::cpu01.inst         1472                       # Number of instructions bytes read from this memory
system.mem_ctrls.bytes_inst_read::cpu02.inst          128                       # Number of instructions bytes read from this memory
system.mem_ctrls.bytes_inst_read::cpu04.inst           64                       # Number of instructions bytes read from this memory
system.mem_ctrls.bytes_inst_read::cpu08.inst          256                       # Number of instructions bytes read from this memory
system.mem_ctrls.bytes_inst_read::cpu16.inst           64                       # Number of instructions bytes read from this memory
system.mem_ctrls.bytes_inst_read::cpu19.inst           64                       # Number of instructions bytes read from this memory
system.mem_ctrls.bytes_inst_read::cpu23.inst           64                       # Number of instructions bytes read from this memory
system.mem_ctrls.bytes_inst_read::cpu31.inst           64                       # Number of instructions bytes read from this memory
system.mem_ctrls.bytes_inst_read::total         37376                       # Number of instructions bytes read from this memory
system.mem_ctrls.bytes_written::writebacks         1024                       # Number of bytes written to this memory
system.mem_ctrls.bytes_written::total            1024                       # Number of bytes written to this memory
system.mem_ctrls.num_reads::cpu00.inst            550                       # Number of read requests responded to by this memory
system.mem_ctrls.num_reads::cpu00.data           1891                       # Number of read requests responded to by this memory
system.mem_ctrls.num_reads::cpu01.inst             23                       # Number of read requests responded to by this memory
system.mem_ctrls.num_reads::cpu01.data              5                       # Number of read requests responded to by this memory
system.mem_ctrls.num_reads::cpu02.inst              2                       # Number of read requests responded to by this memory
system.mem_ctrls.num_reads::cpu02.data              4                       # Number of read requests responded to by this memory
system.mem_ctrls.num_reads::cpu03.data              4                       # Number of read requests responded to by this memory
system.mem_ctrls.num_reads::cpu04.inst              1                       # Number of read requests responded to by this memory
system.mem_ctrls.num_reads::cpu04.data              4                       # Number of read requests responded to by this memory
system.mem_ctrls.num_reads::cpu05.data              4                       # Number of read requests responded to by this memory
system.mem_ctrls.num_reads::cpu06.data              4                       # Number of read requests responded to by this memory
system.mem_ctrls.num_reads::cpu07.data              5                       # Number of read requests responded to by this memory
system.mem_ctrls.num_reads::cpu08.inst              4                       # Number of read requests responded to by this memory
system.mem_ctrls.num_reads::cpu08.data              4                       # Number of read requests responded to by this memory
system.mem_ctrls.num_reads::cpu09.data              4                       # Number of read requests responded to by this memory
system.mem_ctrls.num_reads::cpu10.data              4                       # Number of read requests responded to by this memory
system.mem_ctrls.num_reads::cpu11.data              4                       # Number of read requests responded to by this memory
system.mem_ctrls.num_reads::cpu12.data              6                       # Number of read requests responded to by this memory
system.mem_ctrls.num_reads::cpu13.data              4                       # Number of read requests responded to by this memory
system.mem_ctrls.num_reads::cpu14.data              4                       # Number of read requests responded to by this memory
system.mem_ctrls.num_reads::cpu15.data              4                       # Number of read requests responded to by this memory
system.mem_ctrls.num_reads::cpu16.inst              1                       # Number of read requests responded to by this memory
system.mem_ctrls.num_reads::cpu16.data              4                       # Number of read requests responded to by this memory
system.mem_ctrls.num_reads::cpu17.data              4                       # Number of read requests responded to by this memory
system.mem_ctrls.num_reads::cpu18.data              4                       # Number of read requests responded to by this memory
system.mem_ctrls.num_reads::cpu19.inst              1                       # Number of read requests responded to by this memory
system.mem_ctrls.num_reads::cpu19.data              4                       # Number of read requests responded to by this memory
system.mem_ctrls.num_reads::cpu20.data              4                       # Number of read requests responded to by this memory
system.mem_ctrls.num_reads::cpu21.data              4                       # Number of read requests responded to by this memory
system.mem_ctrls.num_reads::cpu22.data              4                       # Number of read requests responded to by this memory
system.mem_ctrls.num_reads::cpu23.inst              1                       # Number of read requests responded to by this memory
system.mem_ctrls.num_reads::cpu23.data              5                       # Number of read requests responded to by this memory
system.mem_ctrls.num_reads::cpu24.data              4                       # Number of read requests responded to by this memory
system.mem_ctrls.num_reads::cpu25.data              4                       # Number of read requests responded to by this memory
system.mem_ctrls.num_reads::cpu26.data              4                       # Number of read requests responded to by this memory
system.mem_ctrls.num_reads::cpu27.data              4                       # Number of read requests responded to by this memory
system.mem_ctrls.num_reads::cpu28.data              5                       # Number of read requests responded to by this memory
system.mem_ctrls.num_reads::cpu29.data              4                       # Number of read requests responded to by this memory
system.mem_ctrls.num_reads::cpu30.data              4                       # Number of read requests responded to by this memory
system.mem_ctrls.num_reads::cpu31.inst              1                       # Number of read requests responded to by this memory
system.mem_ctrls.num_reads::cpu31.data              4                       # Number of read requests responded to by this memory
system.mem_ctrls.num_reads::total                2605                       # Number of read requests responded to by this memory
system.mem_ctrls.num_writes::writebacks            16                       # Number of write requests responded to by this memory
system.mem_ctrls.num_writes::total                 16                       # Number of write requests responded to by this memory
system.mem_ctrls.bw_read::cpu00.inst        206128819                       # Total read bandwidth from this memory (bytes/s)
system.mem_ctrls.bw_read::cpu00.data        708708357                       # Total read bandwidth from this memory (bytes/s)
system.mem_ctrls.bw_read::cpu01.inst          8619932                       # Total read bandwidth from this memory (bytes/s)
system.mem_ctrls.bw_read::cpu01.data          1873898                       # Total read bandwidth from this memory (bytes/s)
system.mem_ctrls.bw_read::cpu02.inst           749559                       # Total read bandwidth from this memory (bytes/s)
system.mem_ctrls.bw_read::cpu02.data          1499119                       # Total read bandwidth from this memory (bytes/s)
system.mem_ctrls.bw_read::cpu03.data          1499119                       # Total read bandwidth from this memory (bytes/s)
system.mem_ctrls.bw_read::cpu04.inst           374780                       # Total read bandwidth from this memory (bytes/s)
system.mem_ctrls.bw_read::cpu04.data          1499119                       # Total read bandwidth from this memory (bytes/s)
system.mem_ctrls.bw_read::cpu05.data          1499119                       # Total read bandwidth from this memory (bytes/s)
system.mem_ctrls.bw_read::cpu06.data          1499119                       # Total read bandwidth from this memory (bytes/s)
system.mem_ctrls.bw_read::cpu07.data          1873898                       # Total read bandwidth from this memory (bytes/s)
system.mem_ctrls.bw_read::cpu08.inst          1499119                       # Total read bandwidth from this memory (bytes/s)
system.mem_ctrls.bw_read::cpu08.data          1499119                       # Total read bandwidth from this memory (bytes/s)
system.mem_ctrls.bw_read::cpu09.data          1499119                       # Total read bandwidth from this memory (bytes/s)
system.mem_ctrls.bw_read::cpu10.data          1499119                       # Total read bandwidth from this memory (bytes/s)
system.mem_ctrls.bw_read::cpu11.data          1499119                       # Total read bandwidth from this memory (bytes/s)
system.mem_ctrls.bw_read::cpu12.data          2248678                       # Total read bandwidth from this memory (bytes/s)
system.mem_ctrls.bw_read::cpu13.data          1499119                       # Total read bandwidth from this memory (bytes/s)
system.mem_ctrls.bw_read::cpu14.data          1499119                       # Total read bandwidth from this memory (bytes/s)
system.mem_ctrls.bw_read::cpu15.data          1499119                       # Total read bandwidth from this memory (bytes/s)
system.mem_ctrls.bw_read::cpu16.inst           374780                       # Total read bandwidth from this memory (bytes/s)
system.mem_ctrls.bw_read::cpu16.data          1499119                       # Total read bandwidth from this memory (bytes/s)
system.mem_ctrls.bw_read::cpu17.data          1499119                       # Total read bandwidth from this memory (bytes/s)
system.mem_ctrls.bw_read::cpu18.data          1499119                       # Total read bandwidth from this memory (bytes/s)
system.mem_ctrls.bw_read::cpu19.inst           374780                       # Total read bandwidth from this memory (bytes/s)
system.mem_ctrls.bw_read::cpu19.data          1499119                       # Total read bandwidth from this memory (bytes/s)
system.mem_ctrls.bw_read::cpu20.data          1499119                       # Total read bandwidth from this memory (bytes/s)
system.mem_ctrls.bw_read::cpu21.data          1499119                       # Total read bandwidth from this memory (bytes/s)
system.mem_ctrls.bw_read::cpu22.data          1499119                       # Total read bandwidth from this memory (bytes/s)
system.mem_ctrls.bw_read::cpu23.inst           374780                       # Total read bandwidth from this memory (bytes/s)
system.mem_ctrls.bw_read::cpu23.data          1873898                       # Total read bandwidth from this memory (bytes/s)
system.mem_ctrls.bw_read::cpu24.data          1499119                       # Total read bandwidth from this memory (bytes/s)
system.mem_ctrls.bw_read::cpu25.data          1499119                       # Total read bandwidth from this memory (bytes/s)
system.mem_ctrls.bw_read::cpu26.data          1499119                       # Total read bandwidth from this memory (bytes/s)
system.mem_ctrls.bw_read::cpu27.data          1499119                       # Total read bandwidth from this memory (bytes/s)
system.mem_ctrls.bw_read::cpu28.data          1873898                       # Total read bandwidth from this memory (bytes/s)
system.mem_ctrls.bw_read::cpu29.data          1499119                       # Total read bandwidth from this memory (bytes/s)
system.mem_ctrls.bw_read::cpu30.data          1499119                       # Total read bandwidth from this memory (bytes/s)
system.mem_ctrls.bw_read::cpu31.inst           374780                       # Total read bandwidth from this memory (bytes/s)
system.mem_ctrls.bw_read::cpu31.data          1499119                       # Total read bandwidth from this memory (bytes/s)
system.mem_ctrls.bw_read::total             976301042                       # Total read bandwidth from this memory (bytes/s)
system.mem_ctrls.bw_inst_read::cpu00.inst    206128819                       # Instruction read bandwidth from this memory (bytes/s)
system.mem_ctrls.bw_inst_read::cpu01.inst      8619932                       # Instruction read bandwidth from this memory (bytes/s)
system.mem_ctrls.bw_inst_read::cpu02.inst       749559                       # Instruction read bandwidth from this memory (bytes/s)
system.mem_ctrls.bw_inst_read::cpu04.inst       374780                       # Instruction read bandwidth from this memory (bytes/s)
system.mem_ctrls.bw_inst_read::cpu08.inst      1499119                       # Instruction read bandwidth from this memory (bytes/s)
system.mem_ctrls.bw_inst_read::cpu16.inst       374780                       # Instruction read bandwidth from this memory (bytes/s)
system.mem_ctrls.bw_inst_read::cpu19.inst       374780                       # Instruction read bandwidth from this memory (bytes/s)
system.mem_ctrls.bw_inst_read::cpu23.inst       374780                       # Instruction read bandwidth from this memory (bytes/s)
system.mem_ctrls.bw_inst_read::cpu31.inst       374780                       # Instruction read bandwidth from this memory (bytes/s)
system.mem_ctrls.bw_inst_read::total        218871328                       # Instruction read bandwidth from this memory (bytes/s)
system.mem_ctrls.bw_write::writebacks         5996475                       # Write bandwidth from this memory (bytes/s)
system.mem_ctrls.bw_write::total              5996475                       # Write bandwidth from this memory (bytes/s)
system.mem_ctrls.bw_total::writebacks         5996475                       # Total bandwidth to/from this memory (bytes/s)
system.mem_ctrls.bw_total::cpu00.inst       206128819                       # Total bandwidth to/from this memory (bytes/s)
system.mem_ctrls.bw_total::cpu00.data       708708357                       # Total bandwidth to/from this memory (bytes/s)
system.mem_ctrls.bw_total::cpu01.inst         8619932                       # Total bandwidth to/from this memory (bytes/s)
system.mem_ctrls.bw_total::cpu01.data         1873898                       # Total bandwidth to/from this memory (bytes/s)
system.mem_ctrls.bw_total::cpu02.inst          749559                       # Total bandwidth to/from this memory (bytes/s)
system.mem_ctrls.bw_total::cpu02.data         1499119                       # Total bandwidth to/from this memory (bytes/s)
system.mem_ctrls.bw_total::cpu03.data         1499119                       # Total bandwidth to/from this memory (bytes/s)
system.mem_ctrls.bw_total::cpu04.inst          374780                       # Total bandwidth to/from this memory (bytes/s)
system.mem_ctrls.bw_total::cpu04.data         1499119                       # Total bandwidth to/from this memory (bytes/s)
system.mem_ctrls.bw_total::cpu05.data         1499119                       # Total bandwidth to/from this memory (bytes/s)
system.mem_ctrls.bw_total::cpu06.data         1499119                       # Total bandwidth to/from this memory (bytes/s)
system.mem_ctrls.bw_total::cpu07.data         1873898                       # Total bandwidth to/from this memory (bytes/s)
system.mem_ctrls.bw_total::cpu08.inst         1499119                       # Total bandwidth to/from this memory (bytes/s)
system.mem_ctrls.bw_total::cpu08.data         1499119                       # Total bandwidth to/from this memory (bytes/s)
system.mem_ctrls.bw_total::cpu09.data         1499119                       # Total bandwidth to/from this memory (bytes/s)
system.mem_ctrls.bw_total::cpu10.data         1499119                       # Total bandwidth to/from this memory (bytes/s)
system.mem_ctrls.bw_total::cpu11.data         1499119                       # Total bandwidth to/from this memory (bytes/s)
system.mem_ctrls.bw_total::cpu12.data         2248678                       # Total bandwidth to/from this memory (bytes/s)
system.mem_ctrls.bw_total::cpu13.data         1499119                       # Total bandwidth to/from this memory (bytes/s)
system.mem_ctrls.bw_total::cpu14.data         1499119                       # Total bandwidth to/from this memory (bytes/s)
system.mem_ctrls.bw_total::cpu15.data         1499119                       # Total bandwidth to/from this memory (bytes/s)
system.mem_ctrls.bw_total::cpu16.inst          374780                       # Total bandwidth to/from this memory (bytes/s)
system.mem_ctrls.bw_total::cpu16.data         1499119                       # Total bandwidth to/from this memory (bytes/s)
system.mem_ctrls.bw_total::cpu17.data         1499119                       # Total bandwidth to/from this memory (bytes/s)
system.mem_ctrls.bw_total::cpu18.data         1499119                       # Total bandwidth to/from this memory (bytes/s)
system.mem_ctrls.bw_total::cpu19.inst          374780                       # Total bandwidth to/from this memory (bytes/s)
system.mem_ctrls.bw_total::cpu19.data         1499119                       # Total bandwidth to/from this memory (bytes/s)
system.mem_ctrls.bw_total::cpu20.data         1499119                       # Total bandwidth to/from this memory (bytes/s)
system.mem_ctrls.bw_total::cpu21.data         1499119                       # Total bandwidth to/from this memory (bytes/s)
system.mem_ctrls.bw_total::cpu22.data         1499119                       # Total bandwidth to/from this memory (bytes/s)
system.mem_ctrls.bw_total::cpu23.inst          374780                       # Total bandwidth to/from this memory (bytes/s)
system.mem_ctrls.bw_total::cpu23.data         1873898                       # Total bandwidth to/from this memory (bytes/s)
system.mem_ctrls.bw_total::cpu24.data         1499119                       # Total bandwidth to/from this memory (bytes/s)
system.mem_ctrls.bw_total::cpu25.data         1499119                       # Total bandwidth to/from this memory (bytes/s)
system.mem_ctrls.bw_total::cpu26.data         1499119                       # Total bandwidth to/from this memory (bytes/s)
system.mem_ctrls.bw_total::cpu27.data         1499119                       # Total bandwidth to/from this memory (bytes/s)
system.mem_ctrls.bw_total::cpu28.data         1873898                       # Total bandwidth to/from this memory (bytes/s)
system.mem_ctrls.bw_total::cpu29.data         1499119                       # Total bandwidth to/from this memory (bytes/s)
system.mem_ctrls.bw_total::cpu30.data         1499119                       # Total bandwidth to/from this memory (bytes/s)
system.mem_ctrls.bw_total::cpu31.inst          374780                       # Total bandwidth to/from this memory (bytes/s)
system.mem_ctrls.bw_total::cpu31.data         1499119                       # Total bandwidth to/from this memory (bytes/s)
system.mem_ctrls.bw_total::total            982297516                       # Total bandwidth to/from this memory (bytes/s)
system.mem_ctrls.readReqs                        2605                       # Number of read requests accepted
system.mem_ctrls.writeReqs                         16                       # Number of write requests accepted
system.mem_ctrls.readBursts                      2605                       # Number of DRAM read bursts, including those serviced by the write queue
system.mem_ctrls.writeBursts                       16                       # Number of DRAM write bursts, including those merged in the write queue
system.mem_ctrls.bytesReadDRAM                 166656                       # Total number of bytes read from DRAM
system.mem_ctrls.bytesReadWrQ                      64                       # Total number of bytes read from write queue
system.mem_ctrls.bytesWritten                       0                       # Total number of bytes written to DRAM
system.mem_ctrls.bytesReadSys                  166720                       # Total read bytes from the system interface side
system.mem_ctrls.bytesWrittenSys                 1024                       # Total written bytes from the system interface side
system.mem_ctrls.servicedByWrQ                      1                       # Number of DRAM read bursts serviced by the write queue
system.mem_ctrls.mergedWrBursts                     0                       # Number of DRAM write bursts merged with an existing one
system.mem_ctrls.neitherReadNorWriteReqs            6                       # Number of requests that are neither read nor write
system.mem_ctrls.perBankRdBursts::0               131                       # Per bank write bursts
system.mem_ctrls.perBankRdBursts::1               138                       # Per bank write bursts
system.mem_ctrls.perBankRdBursts::2               144                       # Per bank write bursts
system.mem_ctrls.perBankRdBursts::3               288                       # Per bank write bursts
system.mem_ctrls.perBankRdBursts::4               240                       # Per bank write bursts
system.mem_ctrls.perBankRdBursts::5               150                       # Per bank write bursts
system.mem_ctrls.perBankRdBursts::6               224                       # Per bank write bursts
system.mem_ctrls.perBankRdBursts::7               162                       # Per bank write bursts
system.mem_ctrls.perBankRdBursts::8               142                       # Per bank write bursts
system.mem_ctrls.perBankRdBursts::9               138                       # Per bank write bursts
system.mem_ctrls.perBankRdBursts::10              128                       # Per bank write bursts
system.mem_ctrls.perBankRdBursts::11              142                       # Per bank write bursts
system.mem_ctrls.perBankRdBursts::12              134                       # Per bank write bursts
system.mem_ctrls.perBankRdBursts::13              161                       # Per bank write bursts
system.mem_ctrls.perBankRdBursts::14              166                       # Per bank write bursts
system.mem_ctrls.perBankRdBursts::15              116                       # Per bank write bursts
system.mem_ctrls.perBankWrBursts::0                 0                       # Per bank write bursts
system.mem_ctrls.perBankWrBursts::1                 0                       # Per bank write bursts
system.mem_ctrls.perBankWrBursts::2                 0                       # Per bank write bursts
system.mem_ctrls.perBankWrBursts::3                 0                       # Per bank write bursts
system.mem_ctrls.perBankWrBursts::4                 0                       # Per bank write bursts
system.mem_ctrls.perBankWrBursts::5                 0                       # Per bank write bursts
system.mem_ctrls.perBankWrBursts::6                 0                       # Per bank write bursts
system.mem_ctrls.perBankWrBursts::7                 0                       # Per bank write bursts
system.mem_ctrls.perBankWrBursts::8                 0                       # Per bank write bursts
system.mem_ctrls.perBankWrBursts::9                 0                       # Per bank write bursts
system.mem_ctrls.perBankWrBursts::10                0                       # Per bank write bursts
system.mem_ctrls.perBankWrBursts::11                0                       # Per bank write bursts
system.mem_ctrls.perBankWrBursts::12                0                       # Per bank write bursts
system.mem_ctrls.perBankWrBursts::13                0                       # Per bank write bursts
system.mem_ctrls.perBankWrBursts::14                0                       # Per bank write bursts
system.mem_ctrls.perBankWrBursts::15                0                       # Per bank write bursts
system.mem_ctrls.numRdRetry                         0                       # Number of times read queue was full causing retry
system.mem_ctrls.numWrRetry                         0                       # Number of times write queue was full causing retry
system.mem_ctrls.totGap                     170723500                       # Total gap between requests
system.mem_ctrls.readPktSize::0                     0                       # Read request sizes (log2)
system.mem_ctrls.readPktSize::1                     0                       # Read request sizes (log2)
system.mem_ctrls.readPktSize::2                     0                       # Read request sizes (log2)
system.mem_ctrls.readPktSize::3                     0                       # Read request sizes (log2)
system.mem_ctrls.readPktSize::4                     0                       # Read request sizes (log2)
system.mem_ctrls.readPktSize::5                     0                       # Read request sizes (log2)
system.mem_ctrls.readPktSize::6                  2605                       # Read request sizes (log2)
system.mem_ctrls.writePktSize::0                    0                       # Write request sizes (log2)
system.mem_ctrls.writePktSize::1                    0                       # Write request sizes (log2)
system.mem_ctrls.writePktSize::2                    0                       # Write request sizes (log2)
system.mem_ctrls.writePktSize::3                    0                       # Write request sizes (log2)
system.mem_ctrls.writePktSize::4                    0                       # Write request sizes (log2)
system.mem_ctrls.writePktSize::5                    0                       # Write request sizes (log2)
system.mem_ctrls.writePktSize::6                   16                       # Write request sizes (log2)
system.mem_ctrls.rdQLenPdf::0                    1430                       # What read queue length does an incoming req see
system.mem_ctrls.rdQLenPdf::1                     970                       # What read queue length does an incoming req see
system.mem_ctrls.rdQLenPdf::2                     111                       # What read queue length does an incoming req see
system.mem_ctrls.rdQLenPdf::3                      45                       # What read queue length does an incoming req see
system.mem_ctrls.rdQLenPdf::4                      13                       # What read queue length does an incoming req see
system.mem_ctrls.rdQLenPdf::5                       3                       # What read queue length does an incoming req see
system.mem_ctrls.rdQLenPdf::6                       2                       # What read queue length does an incoming req see
system.mem_ctrls.rdQLenPdf::7                       2                       # What read queue length does an incoming req see
system.mem_ctrls.rdQLenPdf::8                       1                       # What read queue length does an incoming req see
system.mem_ctrls.rdQLenPdf::9                       2                       # What read queue length does an incoming req see
system.mem_ctrls.rdQLenPdf::10                      2                       # What read queue length does an incoming req see
system.mem_ctrls.rdQLenPdf::11                      2                       # What read queue length does an incoming req see
system.mem_ctrls.rdQLenPdf::12                      3                       # What read queue length does an incoming req see
system.mem_ctrls.rdQLenPdf::13                      1                       # What read queue length does an incoming req see
system.mem_ctrls.rdQLenPdf::14                      2                       # What read queue length does an incoming req see
system.mem_ctrls.rdQLenPdf::15                      2                       # What read queue length does an incoming req see
system.mem_ctrls.rdQLenPdf::16                      1                       # What read queue length does an incoming req see
system.mem_ctrls.rdQLenPdf::17                      3                       # What read queue length does an incoming req see
system.mem_ctrls.rdQLenPdf::18                      2                       # What read queue length does an incoming req see
system.mem_ctrls.rdQLenPdf::19                      7                       # What read queue length does an incoming req see
system.mem_ctrls.rdQLenPdf::20                      0                       # What read queue length does an incoming req see
system.mem_ctrls.rdQLenPdf::21                      0                       # What read queue length does an incoming req see
system.mem_ctrls.rdQLenPdf::22                      0                       # What read queue length does an incoming req see
system.mem_ctrls.rdQLenPdf::23                      0                       # What read queue length does an incoming req see
system.mem_ctrls.rdQLenPdf::24                      0                       # What read queue length does an incoming req see
system.mem_ctrls.rdQLenPdf::25                      0                       # What read queue length does an incoming req see
system.mem_ctrls.rdQLenPdf::26                      0                       # What read queue length does an incoming req see
system.mem_ctrls.rdQLenPdf::27                      0                       # What read queue length does an incoming req see
system.mem_ctrls.rdQLenPdf::28                      0                       # What read queue length does an incoming req see
system.mem_ctrls.rdQLenPdf::29                      0                       # What read queue length does an incoming req see
system.mem_ctrls.rdQLenPdf::30                      0                       # What read queue length does an incoming req see
system.mem_ctrls.rdQLenPdf::31                      0                       # What read queue length does an incoming req see
system.mem_ctrls.wrQLenPdf::0                       1                       # What write queue length does an incoming req see
system.mem_ctrls.wrQLenPdf::1                       1                       # What write queue length does an incoming req see
system.mem_ctrls.wrQLenPdf::2                       1                       # What write queue length does an incoming req see
system.mem_ctrls.wrQLenPdf::3                       1                       # What write queue length does an incoming req see
system.mem_ctrls.wrQLenPdf::4                       1                       # What write queue length does an incoming req see
system.mem_ctrls.wrQLenPdf::5                       1                       # What write queue length does an incoming req see
system.mem_ctrls.wrQLenPdf::6                       1                       # What write queue length does an incoming req see
system.mem_ctrls.wrQLenPdf::7                       1                       # What write queue length does an incoming req see
system.mem_ctrls.wrQLenPdf::8                       1                       # What write queue length does an incoming req see
system.mem_ctrls.wrQLenPdf::9                       1                       # What write queue length does an incoming req see
system.mem_ctrls.wrQLenPdf::10                      1                       # What write queue length does an incoming req see
system.mem_ctrls.wrQLenPdf::11                      1                       # What write queue length does an incoming req see
system.mem_ctrls.wrQLenPdf::12                      1                       # What write queue length does an incoming req see
system.mem_ctrls.wrQLenPdf::13                      1                       # What write queue length does an incoming req see
system.mem_ctrls.wrQLenPdf::14                      1                       # What write queue length does an incoming req see
system.mem_ctrls.wrQLenPdf::15                      1                       # What write queue length does an incoming req see
system.mem_ctrls.wrQLenPdf::16                      0                       # What write queue length does an incoming req see
system.mem_ctrls.wrQLenPdf::17                      0                       # What write queue length does an incoming req see
system.mem_ctrls.wrQLenPdf::18                      0                       # What write queue length does an incoming req see
system.mem_ctrls.wrQLenPdf::19                      0                       # What write queue length does an incoming req see
system.mem_ctrls.wrQLenPdf::20                      0                       # What write queue length does an incoming req see
system.mem_ctrls.wrQLenPdf::21                      0                       # What write queue length does an incoming req see
system.mem_ctrls.wrQLenPdf::22                      0                       # What write queue length does an incoming req see
system.mem_ctrls.wrQLenPdf::23                      0                       # What write queue length does an incoming req see
system.mem_ctrls.wrQLenPdf::24                      0                       # What write queue length does an incoming req see
system.mem_ctrls.wrQLenPdf::25                      0                       # What write queue length does an incoming req see
system.mem_ctrls.wrQLenPdf::26                      0                       # What write queue length does an incoming req see
system.mem_ctrls.wrQLenPdf::27                      0                       # What write queue length does an incoming req see
system.mem_ctrls.wrQLenPdf::28                      0                       # What write queue length does an incoming req see
system.mem_ctrls.wrQLenPdf::29                      0                       # What write queue length does an incoming req see
system.mem_ctrls.wrQLenPdf::30                      0                       # What write queue length does an incoming req see
system.mem_ctrls.wrQLenPdf::31                      0                       # What write queue length does an incoming req see
system.mem_ctrls.wrQLenPdf::32                      0                       # What write queue length does an incoming req see
system.mem_ctrls.wrQLenPdf::33                      0                       # What write queue length does an incoming req see
system.mem_ctrls.wrQLenPdf::34                      0                       # What write queue length does an incoming req see
system.mem_ctrls.wrQLenPdf::35                      0                       # What write queue length does an incoming req see
system.mem_ctrls.wrQLenPdf::36                      0                       # What write queue length does an incoming req see
system.mem_ctrls.wrQLenPdf::37                      0                       # What write queue length does an incoming req see
system.mem_ctrls.wrQLenPdf::38                      0                       # What write queue length does an incoming req see
system.mem_ctrls.wrQLenPdf::39                      0                       # What write queue length does an incoming req see
system.mem_ctrls.wrQLenPdf::40                      0                       # What write queue length does an incoming req see
system.mem_ctrls.wrQLenPdf::41                      0                       # What write queue length does an incoming req see
system.mem_ctrls.wrQLenPdf::42                      0                       # What write queue length does an incoming req see
system.mem_ctrls.wrQLenPdf::43                      0                       # What write queue length does an incoming req see
system.mem_ctrls.wrQLenPdf::44                      0                       # What write queue length does an incoming req see
system.mem_ctrls.wrQLenPdf::45                      0                       # What write queue length does an incoming req see
system.mem_ctrls.wrQLenPdf::46                      0                       # What write queue length does an incoming req see
system.mem_ctrls.wrQLenPdf::47                      0                       # What write queue length does an incoming req see
system.mem_ctrls.wrQLenPdf::48                      0                       # What write queue length does an incoming req see
system.mem_ctrls.wrQLenPdf::49                      0                       # What write queue length does an incoming req see
system.mem_ctrls.wrQLenPdf::50                      0                       # What write queue length does an incoming req see
system.mem_ctrls.wrQLenPdf::51                      0                       # What write queue length does an incoming req see
system.mem_ctrls.wrQLenPdf::52                      0                       # What write queue length does an incoming req see
system.mem_ctrls.wrQLenPdf::53                      0                       # What write queue length does an incoming req see
system.mem_ctrls.wrQLenPdf::54                      0                       # What write queue length does an incoming req see
system.mem_ctrls.wrQLenPdf::55                      0                       # What write queue length does an incoming req see
system.mem_ctrls.wrQLenPdf::56                      0                       # What write queue length does an incoming req see
system.mem_ctrls.wrQLenPdf::57                      0                       # What write queue length does an incoming req see
system.mem_ctrls.wrQLenPdf::58                      0                       # What write queue length does an incoming req see
system.mem_ctrls.wrQLenPdf::59                      0                       # What write queue length does an incoming req see
system.mem_ctrls.wrQLenPdf::60                      0                       # What write queue length does an incoming req see
system.mem_ctrls.wrQLenPdf::61                      0                       # What write queue length does an incoming req see
system.mem_ctrls.wrQLenPdf::62                      0                       # What write queue length does an incoming req see
system.mem_ctrls.wrQLenPdf::63                      0                       # What write queue length does an incoming req see
system.mem_ctrls.bytesPerActivate::samples          467                       # Bytes accessed per row activation
system.mem_ctrls.bytesPerActivate::mean    353.164882                       # Bytes accessed per row activation
system.mem_ctrls.bytesPerActivate::gmean   176.289663                       # Bytes accessed per row activation
system.mem_ctrls.bytesPerActivate::stdev   396.196526                       # Bytes accessed per row activation
system.mem_ctrls.bytesPerActivate::0-127          238     50.96%     50.96% # Bytes accessed per row activation
system.mem_ctrls.bytesPerActivate::128-255           48     10.28%     61.24% # Bytes accessed per row activation
system.mem_ctrls.bytesPerActivate::256-383           30      6.42%     67.67% # Bytes accessed per row activation
system.mem_ctrls.bytesPerActivate::384-511           15      3.21%     70.88% # Bytes accessed per row activation
system.mem_ctrls.bytesPerActivate::512-639           10      2.14%     73.02% # Bytes accessed per row activation
system.mem_ctrls.bytesPerActivate::640-767           11      2.36%     75.37% # Bytes accessed per row activation
system.mem_ctrls.bytesPerActivate::768-895            6      1.28%     76.66% # Bytes accessed per row activation
system.mem_ctrls.bytesPerActivate::896-1023            7      1.50%     78.16% # Bytes accessed per row activation
system.mem_ctrls.bytesPerActivate::1024-1151          102     21.84%    100.00% # Bytes accessed per row activation
system.mem_ctrls.bytesPerActivate::total          467                       # Bytes accessed per row activation
system.mem_ctrls.totQLat                     41198253                       # Total ticks spent queuing
system.mem_ctrls.totMemAccLat                90023253                       # Total ticks spent from burst creation until serviced by the DRAM
system.mem_ctrls.totBusLat                   13020000                       # Total ticks spent in databus transfers
system.mem_ctrls.avgQLat                     15821.14                       # Average queueing delay per DRAM burst
system.mem_ctrls.avgBusLat                    5000.00                       # Average bus latency per DRAM burst
system.mem_ctrls.avgMemAccLat                34571.14                       # Average memory access latency per DRAM burst
system.mem_ctrls.avgRdBW                       975.93                       # Average DRAM read bandwidth in MiByte/s
system.mem_ctrls.avgWrBW                         0.00                       # Average achieved write bandwidth in MiByte/s
system.mem_ctrls.avgRdBWSys                    976.30                       # Average system read bandwidth in MiByte/s
system.mem_ctrls.avgWrBWSys                      6.00                       # Average system write bandwidth in MiByte/s
system.mem_ctrls.peakBW                      12800.00                       # Theoretical peak bandwidth in MiByte/s
system.mem_ctrls.busUtil                         7.62                       # Data bus utilization in percentage
system.mem_ctrls.busUtilRead                     7.62                       # Data bus utilization in percentage for reads
system.mem_ctrls.busUtilWrite                    0.00                       # Data bus utilization in percentage for writes
system.mem_ctrls.avgRdQLen                       1.64                       # Average read queue length when enqueuing
system.mem_ctrls.avgWrQLen                       3.89                       # Average write queue length when enqueuing
system.mem_ctrls.readRowHits                     2127                       # Number of row buffer hits during reads
system.mem_ctrls.writeRowHits                       0                       # Number of row buffer hits during writes
system.mem_ctrls.readRowHitRate                 81.68                       # Row buffer hit rate for reads
system.mem_ctrls.writeRowHitRate                 0.00                       # Row buffer hit rate for writes
system.mem_ctrls.avgGap                      65136.78                       # Average gap between requests
system.mem_ctrls.pageHitRate                    81.18                       # Row buffer hit rate, read and write combined
system.mem_ctrls_0.actEnergy                  2766960                       # Energy for activate commands per rank (pJ)
system.mem_ctrls_0.preEnergy                  1509750                       # Energy for precharge commands per rank (pJ)
system.mem_ctrls_0.readEnergy                11380200                       # Energy for read commands per rank (pJ)
system.mem_ctrls_0.writeEnergy                      0                       # Energy for write commands per rank (pJ)
system.mem_ctrls_0.refreshEnergy             10679760                       # Energy for refresh commands per rank (pJ)
system.mem_ctrls_0.actBackEnergy             64977435                       # Energy for active background per rank (pJ)
system.mem_ctrls_0.preBackEnergy             41256750                       # Energy for precharge background per rank (pJ)
system.mem_ctrls_0.totalEnergy              132570855                       # Total energy per rank (pJ)
system.mem_ctrls_0.averagePower            809.555929                       # Core power per rank (mW)
system.mem_ctrls_0.memoryStateTime::IDLE     68391000                       # Time in different power states
system.mem_ctrls_0.memoryStateTime::REF       5460000                       # Time in different power states
system.mem_ctrls_0.memoryStateTime::PRE_PDN            0                       # Time in different power states
system.mem_ctrls_0.memoryStateTime::ACT      90178500                       # Time in different power states
system.mem_ctrls_0.memoryStateTime::ACT_PDN            0                       # Time in different power states
system.mem_ctrls_1.actEnergy                   718200                       # Energy for activate commands per rank (pJ)
system.mem_ctrls_1.preEnergy                   391875                       # Energy for precharge commands per rank (pJ)
system.mem_ctrls_1.readEnergy                 8502000                       # Energy for read commands per rank (pJ)
system.mem_ctrls_1.writeEnergy                      0                       # Energy for write commands per rank (pJ)
system.mem_ctrls_1.refreshEnergy             10679760                       # Energy for refresh commands per rank (pJ)
system.mem_ctrls_1.actBackEnergy             61953300                       # Energy for active background per rank (pJ)
system.mem_ctrls_1.preBackEnergy             43909500                       # Energy for precharge background per rank (pJ)
system.mem_ctrls_1.totalEnergy              126154635                       # Total energy per rank (pJ)
system.mem_ctrls_1.averagePower            770.374700                       # Core power per rank (mW)
system.mem_ctrls_1.memoryStateTime::IDLE     76578750                       # Time in different power states
system.mem_ctrls_1.memoryStateTime::REF       5460000                       # Time in different power states
system.mem_ctrls_1.memoryStateTime::PRE_PDN            0                       # Time in different power states
system.mem_ctrls_1.memoryStateTime::ACT      85848750                       # Time in different power states
system.mem_ctrls_1.memoryStateTime::ACT_PDN            0                       # Time in different power states
system.cpu00.branchPred.lookups                 35762                       # Number of BP lookups
system.cpu00.branchPred.condPredicted           32604                       # Number of conditional branches predicted
system.cpu00.branchPred.condIncorrect            1320                       # Number of conditional branches incorrect
system.cpu00.branchPred.BTBLookups              31024                       # Number of BTB lookups
system.cpu00.branchPred.BTBHits                 26862                       # Number of BTB hits
system.cpu00.branchPred.BTBCorrect                  0                       # Number of correct BTB predictions (this stat may not work properly.
system.cpu00.branchPred.BTBHitPct           86.584580                       # BTB Hit Percentage
system.cpu00.branchPred.usedRAS                  1250                       # Number of times the RAS was used to get a target.
system.cpu00.branchPred.RASInCorrect               17                       # Number of incorrect RAS predictions.
system.cpu_voltage_domain.voltage                   1                       # Voltage in Volts
system.cpu_clk_domain.clock                       500                       # Clock period in ticks
system.cpu00.dstage2_mmu.stage2_tlb.walker.walks            0                       # Table walker walks requested
system.cpu00.dstage2_mmu.stage2_tlb.walker.walkRequestOrigin_Requested::Data            0                       # Table walker requests started/completed, data/inst
system.cpu00.dstage2_mmu.stage2_tlb.walker.walkRequestOrigin_Requested::Inst            0                       # Table walker requests started/completed, data/inst
system.cpu00.dstage2_mmu.stage2_tlb.walker.walkRequestOrigin_Requested::total            0                       # Table walker requests started/completed, data/inst
system.cpu00.dstage2_mmu.stage2_tlb.walker.walkRequestOrigin_Completed::Data            0                       # Table walker requests started/completed, data/inst
system.cpu00.dstage2_mmu.stage2_tlb.walker.walkRequestOrigin_Completed::Inst            0                       # Table walker requests started/completed, data/inst
system.cpu00.dstage2_mmu.stage2_tlb.walker.walkRequestOrigin_Completed::total            0                       # Table walker requests started/completed, data/inst
system.cpu00.dstage2_mmu.stage2_tlb.walker.walkRequestOrigin::total            0                       # Table walker requests started/completed, data/inst
system.cpu00.dstage2_mmu.stage2_tlb.inst_hits            0                       # ITB inst hits
system.cpu00.dstage2_mmu.stage2_tlb.inst_misses            0                       # ITB inst misses
system.cpu00.dstage2_mmu.stage2_tlb.read_hits            0                       # DTB read hits
system.cpu00.dstage2_mmu.stage2_tlb.read_misses            0                       # DTB read misses
system.cpu00.dstage2_mmu.stage2_tlb.write_hits            0                       # DTB write hits
system.cpu00.dstage2_mmu.stage2_tlb.write_misses            0                       # DTB write misses
system.cpu00.dstage2_mmu.stage2_tlb.flush_tlb            0                       # Number of times complete TLB was flushed
system.cpu00.dstage2_mmu.stage2_tlb.flush_tlb_mva            0                       # Number of times TLB was flushed by MVA
system.cpu00.dstage2_mmu.stage2_tlb.flush_tlb_mva_asid            0                       # Number of times TLB was flushed by MVA & ASID
system.cpu00.dstage2_mmu.stage2_tlb.flush_tlb_asid            0                       # Number of times TLB was flushed by ASID
system.cpu00.dstage2_mmu.stage2_tlb.flush_entries            0                       # Number of entries that have been flushed from TLB
system.cpu00.dstage2_mmu.stage2_tlb.align_faults            0                       # Number of TLB faults due to alignment restrictions
system.cpu00.dstage2_mmu.stage2_tlb.prefetch_faults            0                       # Number of TLB faults due to prefetch
system.cpu00.dstage2_mmu.stage2_tlb.domain_faults            0                       # Number of TLB faults due to domain restrictions
system.cpu00.dstage2_mmu.stage2_tlb.perms_faults            0                       # Number of TLB faults due to permissions restrictions
system.cpu00.dstage2_mmu.stage2_tlb.read_accesses            0                       # DTB read accesses
system.cpu00.dstage2_mmu.stage2_tlb.write_accesses            0                       # DTB write accesses
system.cpu00.dstage2_mmu.stage2_tlb.inst_accesses            0                       # ITB inst accesses
system.cpu00.dstage2_mmu.stage2_tlb.hits            0                       # DTB hits
system.cpu00.dstage2_mmu.stage2_tlb.misses            0                       # DTB misses
system.cpu00.dstage2_mmu.stage2_tlb.accesses            0                       # DTB accesses
system.cpu00.dtb.walker.walks                       0                       # Table walker walks requested
system.cpu00.dtb.walker.walkRequestOrigin_Requested::Data            0                       # Table walker requests started/completed, data/inst
system.cpu00.dtb.walker.walkRequestOrigin_Requested::Inst            0                       # Table walker requests started/completed, data/inst
system.cpu00.dtb.walker.walkRequestOrigin_Requested::total            0                       # Table walker requests started/completed, data/inst
system.cpu00.dtb.walker.walkRequestOrigin_Completed::Data            0                       # Table walker requests started/completed, data/inst
system.cpu00.dtb.walker.walkRequestOrigin_Completed::Inst            0                       # Table walker requests started/completed, data/inst
system.cpu00.dtb.walker.walkRequestOrigin_Completed::total            0                       # Table walker requests started/completed, data/inst
system.cpu00.dtb.walker.walkRequestOrigin::total            0                       # Table walker requests started/completed, data/inst
system.cpu00.dtb.inst_hits                          0                       # ITB inst hits
system.cpu00.dtb.inst_misses                        0                       # ITB inst misses
system.cpu00.dtb.read_hits                          0                       # DTB read hits
system.cpu00.dtb.read_misses                        0                       # DTB read misses
system.cpu00.dtb.write_hits                         0                       # DTB write hits
system.cpu00.dtb.write_misses                       0                       # DTB write misses
system.cpu00.dtb.flush_tlb                          0                       # Number of times complete TLB was flushed
system.cpu00.dtb.flush_tlb_mva                      0                       # Number of times TLB was flushed by MVA
system.cpu00.dtb.flush_tlb_mva_asid                 0                       # Number of times TLB was flushed by MVA & ASID
system.cpu00.dtb.flush_tlb_asid                     0                       # Number of times TLB was flushed by ASID
system.cpu00.dtb.flush_entries                      0                       # Number of entries that have been flushed from TLB
system.cpu00.dtb.align_faults                       0                       # Number of TLB faults due to alignment restrictions
system.cpu00.dtb.prefetch_faults                    0                       # Number of TLB faults due to prefetch
system.cpu00.dtb.domain_faults                      0                       # Number of TLB faults due to domain restrictions
system.cpu00.dtb.perms_faults                       0                       # Number of TLB faults due to permissions restrictions
system.cpu00.dtb.read_accesses                      0                       # DTB read accesses
system.cpu00.dtb.write_accesses                     0                       # DTB write accesses
system.cpu00.dtb.inst_accesses                      0                       # ITB inst accesses
system.cpu00.dtb.hits                               0                       # DTB hits
system.cpu00.dtb.misses                             0                       # DTB misses
system.cpu00.dtb.accesses                           0                       # DTB accesses
system.cpu00.istage2_mmu.stage2_tlb.walker.walks            0                       # Table walker walks requested
system.cpu00.istage2_mmu.stage2_tlb.walker.walkRequestOrigin_Requested::Data            0                       # Table walker requests started/completed, data/inst
system.cpu00.istage2_mmu.stage2_tlb.walker.walkRequestOrigin_Requested::Inst            0                       # Table walker requests started/completed, data/inst
system.cpu00.istage2_mmu.stage2_tlb.walker.walkRequestOrigin_Requested::total            0                       # Table walker requests started/completed, data/inst
system.cpu00.istage2_mmu.stage2_tlb.walker.walkRequestOrigin_Completed::Data            0                       # Table walker requests started/completed, data/inst
system.cpu00.istage2_mmu.stage2_tlb.walker.walkRequestOrigin_Completed::Inst            0                       # Table walker requests started/completed, data/inst
system.cpu00.istage2_mmu.stage2_tlb.walker.walkRequestOrigin_Completed::total            0                       # Table walker requests started/completed, data/inst
system.cpu00.istage2_mmu.stage2_tlb.walker.walkRequestOrigin::total            0                       # Table walker requests started/completed, data/inst
system.cpu00.istage2_mmu.stage2_tlb.inst_hits            0                       # ITB inst hits
system.cpu00.istage2_mmu.stage2_tlb.inst_misses            0                       # ITB inst misses
system.cpu00.istage2_mmu.stage2_tlb.read_hits            0                       # DTB read hits
system.cpu00.istage2_mmu.stage2_tlb.read_misses            0                       # DTB read misses
system.cpu00.istage2_mmu.stage2_tlb.write_hits            0                       # DTB write hits
system.cpu00.istage2_mmu.stage2_tlb.write_misses            0                       # DTB write misses
system.cpu00.istage2_mmu.stage2_tlb.flush_tlb            0                       # Number of times complete TLB was flushed
system.cpu00.istage2_mmu.stage2_tlb.flush_tlb_mva            0                       # Number of times TLB was flushed by MVA
system.cpu00.istage2_mmu.stage2_tlb.flush_tlb_mva_asid            0                       # Number of times TLB was flushed by MVA & ASID
system.cpu00.istage2_mmu.stage2_tlb.flush_tlb_asid            0                       # Number of times TLB was flushed by ASID
system.cpu00.istage2_mmu.stage2_tlb.flush_entries            0                       # Number of entries that have been flushed from TLB
system.cpu00.istage2_mmu.stage2_tlb.align_faults            0                       # Number of TLB faults due to alignment restrictions
system.cpu00.istage2_mmu.stage2_tlb.prefetch_faults            0                       # Number of TLB faults due to prefetch
system.cpu00.istage2_mmu.stage2_tlb.domain_faults            0                       # Number of TLB faults due to domain restrictions
system.cpu00.istage2_mmu.stage2_tlb.perms_faults            0                       # Number of TLB faults due to permissions restrictions
system.cpu00.istage2_mmu.stage2_tlb.read_accesses            0                       # DTB read accesses
system.cpu00.istage2_mmu.stage2_tlb.write_accesses            0                       # DTB write accesses
system.cpu00.istage2_mmu.stage2_tlb.inst_accesses            0                       # ITB inst accesses
system.cpu00.istage2_mmu.stage2_tlb.hits            0                       # DTB hits
system.cpu00.istage2_mmu.stage2_tlb.misses            0                       # DTB misses
system.cpu00.istage2_mmu.stage2_tlb.accesses            0                       # DTB accesses
system.cpu00.itb.walker.walks                       0                       # Table walker walks requested
system.cpu00.itb.walker.walkRequestOrigin_Requested::Data            0                       # Table walker requests started/completed, data/inst
system.cpu00.itb.walker.walkRequestOrigin_Requested::Inst            0                       # Table walker requests started/completed, data/inst
system.cpu00.itb.walker.walkRequestOrigin_Requested::total            0                       # Table walker requests started/completed, data/inst
system.cpu00.itb.walker.walkRequestOrigin_Completed::Data            0                       # Table walker requests started/completed, data/inst
system.cpu00.itb.walker.walkRequestOrigin_Completed::Inst            0                       # Table walker requests started/completed, data/inst
system.cpu00.itb.walker.walkRequestOrigin_Completed::total            0                       # Table walker requests started/completed, data/inst
system.cpu00.itb.walker.walkRequestOrigin::total            0                       # Table walker requests started/completed, data/inst
system.cpu00.itb.inst_hits                          0                       # ITB inst hits
system.cpu00.itb.inst_misses                        0                       # ITB inst misses
system.cpu00.itb.read_hits                          0                       # DTB read hits
system.cpu00.itb.read_misses                        0                       # DTB read misses
system.cpu00.itb.write_hits                         0                       # DTB write hits
system.cpu00.itb.write_misses                       0                       # DTB write misses
system.cpu00.itb.flush_tlb                          0                       # Number of times complete TLB was flushed
system.cpu00.itb.flush_tlb_mva                      0                       # Number of times TLB was flushed by MVA
system.cpu00.itb.flush_tlb_mva_asid                 0                       # Number of times TLB was flushed by MVA & ASID
system.cpu00.itb.flush_tlb_asid                     0                       # Number of times TLB was flushed by ASID
system.cpu00.itb.flush_entries                      0                       # Number of entries that have been flushed from TLB
system.cpu00.itb.align_faults                       0                       # Number of TLB faults due to alignment restrictions
system.cpu00.itb.prefetch_faults                    0                       # Number of TLB faults due to prefetch
system.cpu00.itb.domain_faults                      0                       # Number of TLB faults due to domain restrictions
system.cpu00.itb.perms_faults                       0                       # Number of TLB faults due to permissions restrictions
system.cpu00.itb.read_accesses                      0                       # DTB read accesses
system.cpu00.itb.write_accesses                     0                       # DTB write accesses
system.cpu00.itb.inst_accesses                      0                       # ITB inst accesses
system.cpu00.itb.hits                               0                       # DTB hits
system.cpu00.itb.misses                             0                       # DTB misses
system.cpu00.itb.accesses                           0                       # DTB accesses
system.cpu00.workload.num_syscalls                184                       # Number of system calls
system.cpu00.numCycles                         341535                       # number of cpu cycles simulated
system.cpu00.numWorkItemsStarted                    0                       # number of work items this cpu started
system.cpu00.numWorkItemsCompleted                  0                       # number of work items this cpu completed
system.cpu00.fetch.icacheStallCycles            49865                       # Number of cycles fetch is stalled on an Icache miss
system.cpu00.fetch.Insts                       326751                       # Number of instructions fetch has processed
system.cpu00.fetch.Branches                     35762                       # Number of branches that fetch encountered
system.cpu00.fetch.predictedBranches            28112                       # Number of branches that fetch has predicted taken
system.cpu00.fetch.Cycles                      246733                       # Number of cycles fetch has run and was not squashing or blocked
system.cpu00.fetch.SquashCycles                  2859                       # Number of cycles fetch has spent squashing
system.cpu00.fetch.PendingTrapStallCycles            4                       # Number of stall cycles due to pending traps
system.cpu00.fetch.CacheLines                   34993                       # Number of cache lines fetched
system.cpu00.fetch.IcacheSquashes                 748                       # Number of outstanding Icache misses that were squashed
system.cpu00.fetch.rateDist::samples           298031                       # Number of instructions fetched each cycle (Total)
system.cpu00.fetch.rateDist::mean            1.212136                       # Number of instructions fetched each cycle (Total)
system.cpu00.fetch.rateDist::stdev           2.533521                       # Number of instructions fetched each cycle (Total)
system.cpu00.fetch.rateDist::underflows             0      0.00%      0.00% # Number of instructions fetched each cycle (Total)
system.cpu00.fetch.rateDist::0                 231274     77.60%     77.60% # Number of instructions fetched each cycle (Total)
system.cpu00.fetch.rateDist::1                   5343      1.79%     79.39% # Number of instructions fetched each cycle (Total)
system.cpu00.fetch.rateDist::2                   7298      2.45%     81.84% # Number of instructions fetched each cycle (Total)
system.cpu00.fetch.rateDist::3                   3801      1.28%     83.12% # Number of instructions fetched each cycle (Total)
system.cpu00.fetch.rateDist::4                   9740      3.27%     86.39% # Number of instructions fetched each cycle (Total)
system.cpu00.fetch.rateDist::5                   2686      0.90%     87.29% # Number of instructions fetched each cycle (Total)
system.cpu00.fetch.rateDist::6                   9041      3.03%     90.32% # Number of instructions fetched each cycle (Total)
system.cpu00.fetch.rateDist::7                   7508      2.52%     92.84% # Number of instructions fetched each cycle (Total)
system.cpu00.fetch.rateDist::8                  21340      7.16%    100.00% # Number of instructions fetched each cycle (Total)
system.cpu00.fetch.rateDist::overflows              0      0.00%    100.00% # Number of instructions fetched each cycle (Total)
system.cpu00.fetch.rateDist::min_value              0                       # Number of instructions fetched each cycle (Total)
system.cpu00.fetch.rateDist::max_value              8                       # Number of instructions fetched each cycle (Total)
system.cpu00.fetch.rateDist::total             298031                       # Number of instructions fetched each cycle (Total)
system.cpu00.fetch.branchRate                0.104710                       # Number of branch fetches per cycle
system.cpu00.fetch.rate                      0.956713                       # Number of inst fetches per cycle
system.cpu00.decode.IdleCycles                  30342                       # Number of cycles decode is idle
system.cpu00.decode.BlockedCycles              220229                       # Number of cycles decode is blocked
system.cpu00.decode.RunCycles                   16688                       # Number of cycles decode is running
system.cpu00.decode.UnblockCycles               29691                       # Number of cycles decode is unblocking
system.cpu00.decode.SquashCycles                 1081                       # Number of cycles decode is squashing
system.cpu00.decode.BranchResolved               1420                       # Number of times decode resolved a branch
system.cpu00.decode.BranchMispred                 354                       # Number of times decode detected a branch misprediction
system.cpu00.decode.DecodedInsts               340903                       # Number of instructions handled by decode
system.cpu00.decode.SquashedInsts                1331                       # Number of squashed instructions handled by decode
system.cpu00.rename.SquashCycles                 1081                       # Number of cycles rename is squashing
system.cpu00.rename.IdleCycles                  40902                       # Number of cycles rename is idle
system.cpu00.rename.BlockCycles                  9232                       # Number of cycles rename is blocking
system.cpu00.rename.serializeStallCycles        21723                       # count of cycles rename stalled for serializing inst
system.cpu00.rename.RunCycles                   35664                       # Number of cycles rename is running
system.cpu00.rename.UnblockCycles              189429                       # Number of cycles rename is unblocking
system.cpu00.rename.RenamedInsts               337748                       # Number of instructions processed by rename
system.cpu00.rename.ROBFullEvents                  16                       # Number of times rename has blocked due to ROB full
system.cpu00.rename.IQFullEvents                63495                       # Number of times rename has blocked due to IQ full
system.cpu00.rename.LQFullEvents                 1855                       # Number of times rename has blocked due to LQ full
system.cpu00.rename.SQFullEvents               120578                       # Number of times rename has blocked due to SQ full
system.cpu00.rename.RenamedOperands            397996                       # Number of destination operands rename has renamed
system.cpu00.rename.RenameLookups             1682740                       # Number of register rename lookups that rename has made
system.cpu00.rename.int_rename_lookups         534903                       # Number of integer rename lookups
system.cpu00.rename.fp_rename_lookups              22                       # Number of floating rename lookups
system.cpu00.rename.CommittedMaps              355629                       # Number of HB maps that are committed
system.cpu00.rename.UndoneMaps                  42367                       # Number of HB maps that are undone due to squashing
system.cpu00.rename.serializingInsts              194                       # count of serializing insts renamed
system.cpu00.rename.tempSerializingInsts          194                       # count of temporary serializing insts renamed
system.cpu00.rename.skidInsts                  148400                       # count of insts added to the skid buffer
system.cpu00.memDep0.insertedLoads              45278                       # Number of loads inserted to the mem dependence unit.
system.cpu00.memDep0.insertedStores             50021                       # Number of stores inserted to the mem dependence unit.
system.cpu00.memDep0.conflictingLoads             766                       # Number of conflicting loads.
system.cpu00.memDep0.conflictingStores            430                       # Number of conflicting stores.
system.cpu00.iq.iqInstsAdded                   333569                       # Number of instructions added to the IQ (excludes non-spec)
system.cpu00.iq.iqNonSpecInstsAdded               331                       # Number of non-speculative instructions added to the IQ
system.cpu00.iq.iqInstsIssued                  306800                       # Number of instructions issued
system.cpu00.iq.iqSquashedInstsIssued            2582                       # Number of squashed instructions issued
system.cpu00.iq.iqSquashedInstsExamined         33609                       # Number of squashed instructions iterated over during squash; mainly for profiling
system.cpu00.iq.iqSquashedOperandsExamined       132953                       # Number of squashed operands that are examined and possibly removed from graph
system.cpu00.iq.iqSquashedNonSpecRemoved           85                       # Number of squashed non-spec instructions that were removed
system.cpu00.iq.issued_per_cycle::samples       298031                       # Number of insts issued each cycle
system.cpu00.iq.issued_per_cycle::mean       1.029423                       # Number of insts issued each cycle
system.cpu00.iq.issued_per_cycle::stdev      0.985056                       # Number of insts issued each cycle
system.cpu00.iq.issued_per_cycle::underflows            0      0.00%      0.00% # Number of insts issued each cycle
system.cpu00.iq.issued_per_cycle::0            140339     47.09%     47.09% # Number of insts issued each cycle
system.cpu00.iq.issued_per_cycle::1              8584      2.88%     49.97% # Number of insts issued each cycle
system.cpu00.iq.issued_per_cycle::2            149108     50.03%    100.00% # Number of insts issued each cycle
system.cpu00.iq.issued_per_cycle::overflows            0      0.00%    100.00% # Number of insts issued each cycle
system.cpu00.iq.issued_per_cycle::min_value            0                       # Number of insts issued each cycle
system.cpu00.iq.issued_per_cycle::max_value            2                       # Number of insts issued each cycle
system.cpu00.iq.issued_per_cycle::total        298031                       # Number of insts issued each cycle
system.cpu00.iq.fu_full::No_OpClass                 0                       # attempts to use FU when none available
system.cpu00.iq.fu_full::IntAlu                     0                       # attempts to use FU when none available
system.cpu00.iq.fu_full::IntMult                    0                       # attempts to use FU when none available
system.cpu00.iq.fu_full::IntDiv                     0                       # attempts to use FU when none available
system.cpu00.iq.fu_full::FloatAdd                   0                       # attempts to use FU when none available
system.cpu00.iq.fu_full::FloatCmp                   0                       # attempts to use FU when none available
system.cpu00.iq.fu_full::FloatCvt                   0                       # attempts to use FU when none available
system.cpu00.iq.fu_full::FloatMult                  0                       # attempts to use FU when none available
system.cpu00.iq.fu_full::FloatDiv                   0                       # attempts to use FU when none available
system.cpu00.iq.fu_full::FloatSqrt                  0                       # attempts to use FU when none available
system.cpu00.iq.fu_full::SimdAdd                    0                       # attempts to use FU when none available
system.cpu00.iq.fu_full::SimdAddAcc                 0                       # attempts to use FU when none available
system.cpu00.iq.fu_full::SimdAlu                    0                       # attempts to use FU when none available
system.cpu00.iq.fu_full::SimdCmp                    0                       # attempts to use FU when none available
system.cpu00.iq.fu_full::SimdCvt                    0                       # attempts to use FU when none available
system.cpu00.iq.fu_full::SimdMisc                   0                       # attempts to use FU when none available
system.cpu00.iq.fu_full::SimdMult                   0                       # attempts to use FU when none available
system.cpu00.iq.fu_full::SimdMultAcc                0                       # attempts to use FU when none available
system.cpu00.iq.fu_full::SimdShift                  0                       # attempts to use FU when none available
system.cpu00.iq.fu_full::SimdShiftAcc               0                       # attempts to use FU when none available
system.cpu00.iq.fu_full::SimdSqrt                   0                       # attempts to use FU when none available
system.cpu00.iq.fu_full::SimdFloatAdd               0                       # attempts to use FU when none available
system.cpu00.iq.fu_full::SimdFloatAlu               0                       # attempts to use FU when none available
[...]
system.tol2bus.snoop_fanout::3                      0      0.00%      0.00% # Request fanout histogram
system.tol2bus.snoop_fanout::4                      0      0.00%      0.00% # Request fanout histogram
system.tol2bus.snoop_fanout::5                      0      0.00%      0.00% # Request fanout histogram
system.tol2bus.snoop_fanout::6                      0      0.00%      0.00% # Request fanout histogram
system.tol2bus.snoop_fanout::7                      0      0.00%      0.00% # Request fanout histogram
system.tol2bus.snoop_fanout::8                      0      0.00%      0.00% # Request fanout histogram
system.tol2bus.snoop_fanout::9                      0      0.00%      0.00% # Request fanout histogram
system.tol2bus.snoop_fanout::10                     0      0.00%      0.00% # Request fanout histogram
system.tol2bus.snoop_fanout::11                     0      0.00%      0.00% # Request fanout histogram
system.tol2bus.snoop_fanout::12                     0      0.00%      0.00% # Request fanout histogram
system.tol2bus.snoop_fanout::13                     0      0.00%      0.00% # Request fanout histogram
system.tol2bus.snoop_fanout::14                     0      0.00%      0.00% # Request fanout histogram
system.tol2bus.snoop_fanout::15                     0      0.00%      0.00% # Request fanout histogram
system.tol2bus.snoop_fanout::16                     0      0.00%      0.00% # Request fanout histogram
system.tol2bus.snoop_fanout::17                     0      0.00%      0.00% # Request fanout histogram
system.tol2bus.snoop_fanout::18                     0      0.00%      0.00% # Request fanout histogram
system.tol2bus.snoop_fanout::19                     0      0.00%      0.00% # Request fanout histogram
system.tol2bus.snoop_fanout::20                     0      0.00%      0.00% # Request fanout histogram
system.tol2bus.snoop_fanout::21                     0      0.00%      0.00% # Request fanout histogram
system.tol2bus.snoop_fanout::22                     0      0.00%      0.00% # Request fanout histogram
system.tol2bus.snoop_fanout::23                     0      0.00%      0.00% # Request fanout histogram
system.tol2bus.snoop_fanout::24                     0      0.00%      0.00% # Request fanout histogram
system.tol2bus.snoop_fanout::25                     0      0.00%      0.00% # Request fanout histogram
system.tol2bus.snoop_fanout::26                     0      0.00%      0.00% # Request fanout histogram
system.tol2bus.snoop_fanout::27                     0      0.00%      0.00% # Request fanout histogram
system.tol2bus.snoop_fanout::28                     0      0.00%      0.00% # Request fanout histogram
system.tol2bus.snoop_fanout::29                     0      0.00%      0.00% # Request fanout histogram
system.tol2bus.snoop_fanout::30                     0      0.00%      0.00% # Request fanout histogram
system.tol2bus.snoop_fanout::31                     0      0.00%      0.00% # Request fanout histogram
system.tol2bus.snoop_fanout::32                     0      0.00%      0.00% # Request fanout histogram
system.tol2bus.snoop_fanout::33                     0      0.00%      0.00% # Request fanout histogram
system.tol2bus.snoop_fanout::34                     0      0.00%      0.00% # Request fanout histogram
system.tol2bus.snoop_fanout::35                     0      0.00%      0.00% # Request fanout histogram
system.tol2bus.snoop_fanout::36                     0      0.00%      0.00% # Request fanout histogram
system.tol2bus.snoop_fanout::37                     0      0.00%      0.00% # Request fanout histogram
system.tol2bus.snoop_fanout::38                     0      0.00%      0.00% # Request fanout histogram
system.tol2bus.snoop_fanout::39                     0      0.00%      0.00% # Request fanout histogram
system.tol2bus.snoop_fanout::40                     0      0.00%      0.00% # Request fanout histogram
system.tol2bus.snoop_fanout::41                     0      0.00%      0.00% # Request fanout histogram
system.tol2bus.snoop_fanout::42                     0      0.00%      0.00% # Request fanout histogram
system.tol2bus.snoop_fanout::43                     0      0.00%      0.00% # Request fanout histogram
system.tol2bus.snoop_fanout::44                     0      0.00%      0.00% # Request fanout histogram
system.tol2bus.snoop_fanout::45                     0      0.00%      0.00% # Request fanout histogram
system.tol2bus.snoop_fanout::46                     0      0.00%      0.00% # Request fanout histogram
system.tol2bus.snoop_fanout::47                     0      0.00%      0.00% # Request fanout histogram
system.tol2bus.snoop_fanout::48                     0      0.00%      0.00% # Request fanout histogram
system.tol2bus.snoop_fanout::49                     0      0.00%      0.00% # Request fanout histogram
system.tol2bus.snoop_fanout::50                     0      0.00%      0.00% # Request fanout histogram
system.tol2bus.snoop_fanout::51                     0      0.00%      0.00% # Request fanout histogram
system.tol2bus.snoop_fanout::52                     0      0.00%      0.00% # Request fanout histogram
system.tol2bus.snoop_fanout::53                     0      0.00%      0.00% # Request fanout histogram
system.tol2bus.snoop_fanout::54                     0      0.00%      0.00% # Request fanout histogram
system.tol2bus.snoop_fanout::55                     0      0.00%      0.00% # Request fanout histogram
system.tol2bus.snoop_fanout::56                     0      0.00%      0.00% # Request fanout histogram
system.tol2bus.snoop_fanout::57                     0      0.00%      0.00% # Request fanout histogram
system.tol2bus.snoop_fanout::58                     0      0.00%      0.00% # Request fanout histogram
system.tol2bus.snoop_fanout::59                     0      0.00%      0.00% # Request fanout histogram
system.tol2bus.snoop_fanout::60                     0      0.00%      0.00% # Request fanout histogram
system.tol2bus.snoop_fanout::61                     0      0.00%      0.00% # Request fanout histogram
system.tol2bus.snoop_fanout::62                     0      0.00%      0.00% # Request fanout histogram
system.tol2bus.snoop_fanout::63                 41272    100.00%    100.00% # Request fanout histogram
system.tol2bus.snoop_fanout::64                     0      0.00%    100.00% # Request fanout histogram
system.tol2bus.snoop_fanout::overflows              0      0.00%    100.00% # Request fanout histogram
system.tol2bus.snoop_fanout::min_value             63                       # Request fanout histogram
system.tol2bus.snoop_fanout::max_value             63                       # Request fanout histogram
system.tol2bus.snoop_fanout::total              41272                       # Request fanout histogram
system.tol2bus.reqLayer0.occupancy           27202479                       # Layer occupancy (ticks)
system.tol2bus.reqLayer0.utilization             15.9                       # Layer utilization (%)
system.tol2bus.respLayer0.occupancy           1085717                       # Layer occupancy (ticks)
system.tol2bus.respLayer0.utilization             0.6                       # Layer utilization (%)
system.tol2bus.respLayer1.occupancy           5433978                       # Layer occupancy (ticks)
system.tol2bus.respLayer1.utilization             3.2                       # Layer utilization (%)
system.tol2bus.respLayer4.occupancy             88721                       # Layer occupancy (ticks)
system.tol2bus.respLayer4.utilization             0.1                       # Layer utilization (%)
system.tol2bus.respLayer5.occupancy           1344116                       # Layer occupancy (ticks)
system.tol2bus.respLayer5.utilization             0.8                       # Layer utilization (%)
system.tol2bus.respLayer8.occupancy             89711                       # Layer occupancy (ticks)
system.tol2bus.respLayer8.utilization             0.1                       # Layer utilization (%)
system.tol2bus.respLayer9.occupancy           1416399                       # Layer occupancy (ticks)
system.tol2bus.respLayer9.utilization             0.8                       # Layer utilization (%)
system.tol2bus.respLayer12.occupancy            91421                       # Layer occupancy (ticks)
system.tol2bus.respLayer12.utilization            0.1                       # Layer utilization (%)
system.tol2bus.respLayer13.occupancy          1386486                       # Layer occupancy (ticks)
system.tol2bus.respLayer13.utilization            0.8                       # Layer utilization (%)
system.tol2bus.respLayer16.occupancy            83704                       # Layer occupancy (ticks)
system.tol2bus.respLayer16.utilization            0.0                       # Layer utilization (%)
system.tol2bus.respLayer17.occupancy          1454891                       # Layer occupancy (ticks)
system.tol2bus.respLayer17.utilization            0.9                       # Layer utilization (%)
system.tol2bus.respLayer20.occupancy            84246                       # Layer occupancy (ticks)
system.tol2bus.respLayer20.utilization            0.0                       # Layer utilization (%)
system.tol2bus.respLayer21.occupancy          1388223                       # Layer occupancy (ticks)
system.tol2bus.respLayer21.utilization            0.8                       # Layer utilization (%)
system.tol2bus.respLayer24.occupancy            90187                       # Layer occupancy (ticks)
system.tol2bus.respLayer24.utilization            0.1                       # Layer utilization (%)
system.tol2bus.respLayer25.occupancy          1452253                       # Layer occupancy (ticks)
system.tol2bus.respLayer25.utilization            0.9                       # Layer utilization (%)
system.tol2bus.respLayer28.occupancy            81749                       # Layer occupancy (ticks)
system.tol2bus.respLayer28.utilization            0.0                       # Layer utilization (%)
system.tol2bus.respLayer29.occupancy          1428891                       # Layer occupancy (ticks)
system.tol2bus.respLayer29.utilization            0.8                       # Layer utilization (%)
system.tol2bus.respLayer32.occupancy            88194                       # Layer occupancy (ticks)
system.tol2bus.respLayer32.utilization            0.1                       # Layer utilization (%)
system.tol2bus.respLayer33.occupancy          1437858                       # Layer occupancy (ticks)
system.tol2bus.respLayer33.utilization            0.8                       # Layer utilization (%)
system.tol2bus.respLayer36.occupancy            90205                       # Layer occupancy (ticks)
system.tol2bus.respLayer36.utilization            0.1                       # Layer utilization (%)
system.tol2bus.respLayer37.occupancy          1420138                       # Layer occupancy (ticks)
system.tol2bus.respLayer37.utilization            0.8                       # Layer utilization (%)
system.tol2bus.respLayer40.occupancy            82501                       # Layer occupancy (ticks)
system.tol2bus.respLayer40.utilization            0.0                       # Layer utilization (%)
system.tol2bus.respLayer41.occupancy          1405912                       # Layer occupancy (ticks)
system.tol2bus.respLayer41.utilization            0.8                       # Layer utilization (%)
system.tol2bus.respLayer44.occupancy            89932                       # Layer occupancy (ticks)
system.tol2bus.respLayer44.utilization            0.1                       # Layer utilization (%)
system.tol2bus.respLayer45.occupancy          1452291                       # Layer occupancy (ticks)
system.tol2bus.respLayer45.utilization            0.9                       # Layer utilization (%)
system.tol2bus.respLayer48.occupancy            85731                       # Layer occupancy (ticks)
system.tol2bus.respLayer48.utilization            0.1                       # Layer utilization (%)
system.tol2bus.respLayer49.occupancy          1409617                       # Layer occupancy (ticks)
system.tol2bus.respLayer49.utilization            0.8                       # Layer utilization (%)
system.tol2bus.respLayer52.occupancy            83467                       # Layer occupancy (ticks)
system.tol2bus.respLayer52.utilization            0.0                       # Layer utilization (%)
system.tol2bus.respLayer53.occupancy          1395912                       # Layer occupancy (ticks)
system.tol2bus.respLayer53.utilization            0.8                       # Layer utilization (%)
system.tol2bus.respLayer56.occupancy            90205                       # Layer occupancy (ticks)
system.tol2bus.respLayer56.utilization            0.1                       # Layer utilization (%)
system.tol2bus.respLayer57.occupancy          1405578                       # Layer occupancy (ticks)
system.tol2bus.respLayer57.utilization            0.8                       # Layer utilization (%)
system.tol2bus.respLayer60.occupancy            84735                       # Layer occupancy (ticks)
system.tol2bus.respLayer60.utilization            0.0                       # Layer utilization (%)
system.tol2bus.respLayer61.occupancy          1432330                       # Layer occupancy (ticks)
system.tol2bus.respLayer61.utilization            0.8                       # Layer utilization (%)
system.tol2bus.respLayer64.occupancy            88445                       # Layer occupancy (ticks)
system.tol2bus.respLayer64.utilization            0.1                       # Layer utilization (%)
system.tol2bus.respLayer65.occupancy          1435868                       # Layer occupancy (ticks)
system.tol2bus.respLayer65.utilization            0.8                       # Layer utilization (%)
system.tol2bus.respLayer68.occupancy            84732                       # Layer occupancy (ticks)
system.tol2bus.respLayer68.utilization            0.0                       # Layer utilization (%)
system.tol2bus.respLayer69.occupancy          1408452                       # Layer occupancy (ticks)
system.tol2bus.respLayer69.utilization            0.8                       # Layer utilization (%)
system.tol2bus.respLayer72.occupancy            88182                       # Layer occupancy (ticks)
system.tol2bus.respLayer72.utilization            0.1                       # Layer utilization (%)
system.tol2bus.respLayer73.occupancy          1440160                       # Layer occupancy (ticks)
system.tol2bus.respLayer73.utilization            0.8                       # Layer utilization (%)
system.tol2bus.respLayer76.occupancy            79749                       # Layer occupancy (ticks)
system.tol2bus.respLayer76.utilization            0.0                       # Layer utilization (%)
system.tol2bus.respLayer77.occupancy          1379948                       # Layer occupancy (ticks)
system.tol2bus.respLayer77.utilization            0.8                       # Layer utilization (%)
system.tol2bus.respLayer80.occupancy            87934                       # Layer occupancy (ticks)
system.tol2bus.respLayer80.utilization            0.1                       # Layer utilization (%)
system.tol2bus.respLayer81.occupancy          1397391                       # Layer occupancy (ticks)
system.tol2bus.respLayer81.utilization            0.8                       # Layer utilization (%)
system.tol2bus.respLayer84.occupancy            88202                       # Layer occupancy (ticks)
system.tol2bus.respLayer84.utilization            0.1                       # Layer utilization (%)
system.tol2bus.respLayer85.occupancy          1417646                       # Layer occupancy (ticks)
system.tol2bus.respLayer85.utilization            0.8                       # Layer utilization (%)
system.tol2bus.respLayer88.occupancy            81743                       # Layer occupancy (ticks)
system.tol2bus.respLayer88.utilization            0.0                       # Layer utilization (%)
system.tol2bus.respLayer89.occupancy          1372182                       # Layer occupancy (ticks)
system.tol2bus.respLayer89.utilization            0.8                       # Layer utilization (%)
system.tol2bus.respLayer92.occupancy            83496                       # Layer occupancy (ticks)
system.tol2bus.respLayer92.utilization            0.0                       # Layer utilization (%)
system.tol2bus.respLayer93.occupancy          1369237                       # Layer occupancy (ticks)
system.tol2bus.respLayer93.utilization            0.8                       # Layer utilization (%)
system.tol2bus.respLayer96.occupancy            79743                       # Layer occupancy (ticks)
system.tol2bus.respLayer96.utilization            0.0                       # Layer utilization (%)
system.tol2bus.respLayer97.occupancy          1389183                       # Layer occupancy (ticks)
system.tol2bus.respLayer97.utilization            0.8                       # Layer utilization (%)
system.tol2bus.respLayer100.occupancy           82500                       # Layer occupancy (ticks)
system.tol2bus.respLayer100.utilization           0.0                       # Layer utilization (%)
system.tol2bus.respLayer101.occupancy         1377205                       # Layer occupancy (ticks)
system.tol2bus.respLayer101.utilization           0.8                       # Layer utilization (%)
system.tol2bus.respLayer104.occupancy           82749                       # Layer occupancy (ticks)
system.tol2bus.respLayer104.utilization           0.0                       # Layer utilization (%)
system.tol2bus.respLayer105.occupancy         1378702                       # Layer occupancy (ticks)
system.tol2bus.respLayer105.utilization           0.8                       # Layer utilization (%)
system.tol2bus.respLayer108.occupancy           79999                       # Layer occupancy (ticks)
system.tol2bus.respLayer108.utilization           0.0                       # Layer utilization (%)
system.tol2bus.respLayer109.occupancy         1415910                       # Layer occupancy (ticks)
system.tol2bus.respLayer109.utilization           0.8                       # Layer utilization (%)
system.tol2bus.respLayer112.occupancy           79751                       # Layer occupancy (ticks)
system.tol2bus.respLayer112.utilization           0.0                       # Layer utilization (%)
system.tol2bus.respLayer113.occupancy         1372972                       # Layer occupancy (ticks)
system.tol2bus.respLayer113.utilization           0.8                       # Layer utilization (%)
system.tol2bus.respLayer116.occupancy           80250                       # Layer occupancy (ticks)
system.tol2bus.respLayer116.utilization           0.0                       # Layer utilization (%)
system.tol2bus.respLayer117.occupancy         1398674                       # Layer occupancy (ticks)
system.tol2bus.respLayer117.utilization           0.8                       # Layer utilization (%)
system.tol2bus.respLayer120.occupancy           80722                       # Layer occupancy (ticks)
system.tol2bus.respLayer120.utilization           0.0                       # Layer utilization (%)
system.tol2bus.respLayer121.occupancy         1384439                       # Layer occupancy (ticks)
system.tol2bus.respLayer121.utilization           0.8                       # Layer utilization (%)
system.tol2bus.respLayer124.occupancy           77250                       # Layer occupancy (ticks)
system.tol2bus.respLayer124.utilization           0.0                       # Layer utilization (%)
system.tol2bus.respLayer125.occupancy         1435668                       # Layer occupancy (ticks)
system.tol2bus.respLayer125.utilization           0.8                       # Layer utilization (%)

---------- End Simulation Statistics   ----------
