
---------- Begin Simulation Statistics ----------
sim_seconds                                  0.000254                       # Number of seconds simulated
sim_ticks                                   253552000                       # Number of ticks simulated
final_tick                                  253552000                       # Number of ticks from beginning of simulation (restored from checkpoints and never reset)
sim_freq                                 1000000000000                       # Frequency of simulated ticks
host_inst_rate                                 184434                       # Simulator instruction rate (inst/s)
host_op_rate                                   186017                       # Simulator op (including micro ops) rate (op/s)
host_tick_rate                               11154665                       # Simulator tick rate (ticks/s)
host_mem_usage                                 686116                       # Number of bytes of host memory used
host_seconds                                    22.73                       # Real time elapsed on the host
sim_insts                                     4192288                       # Number of instructions simulated
sim_ops                                       4228278                       # Number of ops (including micro ops) simulated
system.voltage_domain.voltage                       1                       # Voltage in Volts
system.clk_domain.clock                          1000                       # Clock period in ticks
system.mem_ctrls.bytes_read::cpu0.inst          32128                       # Number of bytes read from this memory
system.mem_ctrls.bytes_read::cpu0.data         115008                       # Number of bytes read from this memory
system.mem_ctrls.bytes_read::cpu1.inst            640                       # Number of bytes read from this memory
system.mem_ctrls.bytes_read::cpu1.data            256                       # Number of bytes read from this memory
system.mem_ctrls.bytes_read::cpu2.inst            640                       # Number of bytes read from this memory
system.mem_ctrls.bytes_read::cpu2.data            320                       # Number of bytes read from this memory
system.mem_ctrls.bytes_read::cpu3.inst            320                       # Number of bytes read from this memory
system.mem_ctrls.bytes_read::cpu3.data            256                       # Number of bytes read from this memory
system.mem_ctrls.bytes_read::cpu4.inst            256                       # Number of bytes read from this memory
system.mem_ctrls.bytes_read::cpu4.data            384                       # Number of bytes read from this memory
system.mem_ctrls.bytes_read::cpu5.inst            192                       # Number of bytes read from this memory
system.mem_ctrls.bytes_read::cpu5.data            256                       # Number of bytes read from this memory
system.mem_ctrls.bytes_read::cpu6.data            256                       # Number of bytes read from this memory
system.mem_ctrls.bytes_read::cpu7.inst            256                       # Number of bytes read from this memory
system.mem_ctrls.bytes_read::cpu7.data            256                       # Number of bytes read from this memory
system.mem_ctrls.bytes_read::total             151424                       # Number of bytes read from this memory
system.mem_ctrls.bytes_inst_read::cpu0.inst        32128                       # Number of instructions bytes read from this memory
system.mem_ctrls.bytes_inst_read::cpu1.inst          640                       # Number of instructions bytes read from this memory
system.mem_ctrls.bytes_inst_read::cpu2.inst          640                       # Number of instructions bytes read from this memory
system.mem_ctrls.bytes_inst_read::cpu3.inst          320                       # Number of instructions bytes read from this memory
system.mem_ctrls.bytes_inst_read::cpu4.inst          256                       # Number of instructions bytes read from this memory
system.mem_ctrls.bytes_inst_read::cpu5.inst          192                       # Number of instructions bytes read from this memory
system.mem_ctrls.bytes_inst_read::cpu7.inst          256                       # Number of instructions bytes read from this memory
system.mem_ctrls.bytes_inst_read::total         34432                       # Number of instructions bytes read from this memory
system.mem_ctrls.num_reads::cpu0.inst             502                       # Number of read requests responded to by this memory
system.mem_ctrls.num_reads::cpu0.data            1797                       # Number of read requests responded to by this memory
system.mem_ctrls.num_reads::cpu1.inst              10                       # Number of read requests responded to by this memory
system.mem_ctrls.num_reads::cpu1.data               4                       # Number of read requests responded to by this memory
system.mem_ctrls.num_reads::cpu2.inst              10                       # Number of read requests responded to by this memory
system.mem_ctrls.num_reads::cpu2.data               5                       # Number of read requests responded to by this memory
system.mem_ctrls.num_reads::cpu3.inst               5                       # Number of read requests responded to by this memory
system.mem_ctrls.num_reads::cpu3.data               4                       # Number of read requests responded to by this memory
system.mem_ctrls.num_reads::cpu4.inst               4                       # Number of read requests responded to by this memory
system.mem_ctrls.num_reads::cpu4.data               6                       # Number of read requests responded to by this memory
system.mem_ctrls.num_reads::cpu5.inst               3                       # Number of read requests responded to by this memory
system.mem_ctrls.num_reads::cpu5.data               4                       # Number of read requests responded to by this memory
system.mem_ctrls.num_reads::cpu6.data               4                       # Number of read requests responded to by this memory
system.mem_ctrls.num_reads::cpu7.inst               4                       # Number of read requests responded to by this memory
system.mem_ctrls.num_reads::cpu7.data               4                       # Number of read requests responded to by this memory
system.mem_ctrls.num_reads::total                2366                       # Number of read requests responded to by this memory
system.mem_ctrls.bw_read::cpu0.inst         126711680                       # Total read bandwidth from this memory (bytes/s)
system.mem_ctrls.bw_read::cpu0.data         453587430                       # Total read bandwidth from this memory (bytes/s)
system.mem_ctrls.bw_read::cpu1.inst           2524137                       # Total read bandwidth from this memory (bytes/s)
system.mem_ctrls.bw_read::cpu1.data           1009655                       # Total read bandwidth from this memory (bytes/s)
system.mem_ctrls.bw_read::cpu2.inst           2524137                       # Total read bandwidth from this memory (bytes/s)
system.mem_ctrls.bw_read::cpu2.data           1262069                       # Total read bandwidth from this memory (bytes/s)
system.mem_ctrls.bw_read::cpu3.inst           1262069                       # Total read bandwidth from this memory (bytes/s)
system.mem_ctrls.bw_read::cpu3.data           1009655                       # Total read bandwidth from this memory (bytes/s)
system.mem_ctrls.bw_read::cpu4.inst           1009655                       # Total read bandwidth from this memory (bytes/s)
system.mem_ctrls.bw_read::cpu4.data           1514482                       # Total read bandwidth from this memory (bytes/s)
system.mem_ctrls.bw_read::cpu5.inst            757241                       # Total read bandwidth from this memory (bytes/s)
system.mem_ctrls.bw_read::cpu5.data           1009655                       # Total read bandwidth from this memory (bytes/s)
system.mem_ctrls.bw_read::cpu6.data           1009655                       # Total read bandwidth from this memory (bytes/s)
system.mem_ctrls.bw_read::cpu7.inst           1009655                       # Total read bandwidth from this memory (bytes/s)
system.mem_ctrls.bw_read::cpu7.data           1009655                       # Total read bandwidth from this memory (bytes/s)
system.mem_ctrls.bw_read::total             597210829                       # Total read bandwidth from this memory (bytes/s)
system.mem_ctrls.bw_inst_read::cpu0.inst    126711680                       # Instruction read bandwidth from this memory (bytes/s)
system.mem_ctrls.bw_inst_read::cpu1.inst      2524137                       # Instruction read bandwidth from this memory (bytes/s)
system.mem_ctrls.bw_inst_read::cpu2.inst      2524137                       # Instruction read bandwidth from this memory (bytes/s)
system.mem_ctrls.bw_inst_read::cpu3.inst      1262069                       # Instruction read bandwidth from this memory (bytes/s)
system.mem_ctrls.bw_inst_read::cpu4.inst      1009655                       # Instruction read bandwidth from this memory (bytes/s)
system.mem_ctrls.bw_inst_read::cpu5.inst       757241                       # Instruction read bandwidth from this memory (bytes/s)
system.mem_ctrls.bw_inst_read::cpu7.inst      1009655                       # Instruction read bandwidth from this memory (bytes/s)
system.mem_ctrls.bw_inst_read::total        135798574                       # Instruction read bandwidth from this memory (bytes/s)
system.mem_ctrls.bw_total::cpu0.inst        126711680                       # Total bandwidth to/from this memory (bytes/s)
system.mem_ctrls.bw_total::cpu0.data        453587430                       # Total bandwidth to/from this memory (bytes/s)
system.mem_ctrls.bw_total::cpu1.inst          2524137                       # Total bandwidth to/from this memory (bytes/s)
system.mem_ctrls.bw_total::cpu1.data          1009655                       # Total bandwidth to/from this memory (bytes/s)
system.mem_ctrls.bw_total::cpu2.inst          2524137                       # Total bandwidth to/from this memory (bytes/s)
system.mem_ctrls.bw_total::cpu2.data          1262069                       # Total bandwidth to/from this memory (bytes/s)
system.mem_ctrls.bw_total::cpu3.inst          1262069                       # Total bandwidth to/from this memory (bytes/s)
system.mem_ctrls.bw_total::cpu3.data          1009655                       # Total bandwidth to/from this memory (bytes/s)
system.mem_ctrls.bw_total::cpu4.inst          1009655                       # Total bandwidth to/from this memory (bytes/s)
system.mem_ctrls.bw_total::cpu4.data          1514482                       # Total bandwidth to/from this memory (bytes/s)
system.mem_ctrls.bw_total::cpu5.inst           757241                       # Total bandwidth to/from this memory (bytes/s)
system.mem_ctrls.bw_total::cpu5.data          1009655                       # Total bandwidth to/from this memory (bytes/s)
system.mem_ctrls.bw_total::cpu6.data          1009655                       # Total bandwidth to/from this memory (bytes/s)
system.mem_ctrls.bw_total::cpu7.inst          1009655                       # Total bandwidth to/from this memory (bytes/s)
system.mem_ctrls.bw_total::cpu7.data          1009655                       # Total bandwidth to/from this memory (bytes/s)
system.mem_ctrls.bw_total::total            597210829                       # Total bandwidth to/from this memory (bytes/s)
system.mem_ctrls.readReqs                        2366                       # Number of read requests accepted
system.mem_ctrls.writeReqs                          0                       # Number of write requests accepted
system.mem_ctrls.readBursts                      2366                       # Number of DRAM read bursts, including those serviced by the write queue
system.mem_ctrls.writeBursts                        0                       # Number of DRAM write bursts, including those merged in the write queue
system.mem_ctrls.bytesReadDRAM                 151424                       # Total number of bytes read from DRAM
system.mem_ctrls.bytesReadWrQ                       0                       # Total number of bytes read from write queue
system.mem_ctrls.bytesWritten                       0                       # Total number of bytes written to DRAM
system.mem_ctrls.bytesReadSys                  151424                       # Total read bytes from the system interface side
system.mem_ctrls.bytesWrittenSys                    0                       # Total written bytes from the system interface side
system.mem_ctrls.servicedByWrQ                      0                       # Number of DRAM read bursts serviced by the write queue
system.mem_ctrls.mergedWrBursts                     0                       # Number of DRAM write bursts merged with an existing one
system.mem_ctrls.neitherReadNorWriteReqs           17                       # Number of requests that are neither read nor write
system.mem_ctrls.perBankRdBursts::0               121                       # Per bank write bursts
system.mem_ctrls.perBankRdBursts::1               124                       # Per bank write bursts
system.mem_ctrls.perBankRdBursts::2               133                       # Per bank write bursts
system.mem_ctrls.perBankRdBursts::3               207                       # Per bank write bursts
system.mem_ctrls.perBankRdBursts::4               168                       # Per bank write bursts
system.mem_ctrls.perBankRdBursts::5               145                       # Per bank write bursts
system.mem_ctrls.perBankRdBursts::6               209                       # Per bank write bursts
system.mem_ctrls.perBankRdBursts::7               159                       # Per bank write bursts
system.mem_ctrls.perBankRdBursts::8               142                       # Per bank write bursts
system.mem_ctrls.perBankRdBursts::9               138                       # Per bank write bursts
system.mem_ctrls.perBankRdBursts::10              128                       # Per bank write bursts
system.mem_ctrls.perBankRdBursts::11              140                       # Per bank write bursts
system.mem_ctrls.perBankRdBursts::12              134                       # Per bank write bursts
system.mem_ctrls.perBankRdBursts::13              161                       # Per bank write bursts
system.mem_ctrls.perBankRdBursts::14              166                       # Per bank write bursts
system.mem_ctrls.perBankRdBursts::15               91                       # Per bank write bursts
system.mem_ctrls.perBankWrBursts::0                 0                       # Per bank write bursts
system.mem_ctrls.perBankWrBursts::1                 0                       # Per bank write bursts
system.mem_ctrls.perBankWrBursts::2                 0                       # Per bank write bursts
system.mem_ctrls.perBankWrBursts::3                 0                       # Per bank write bursts
system.mem_ctrls.perBankWrBursts::4                 0                       # Per bank write bursts
system.mem_ctrls.perBankWrBursts::5                 0                       # Per bank write bursts
system.mem_ctrls.perBankWrBursts::6                 0                       # Per bank write bursts
system.mem_ctrls.perBankWrBursts::7                 0                       # Per bank write bursts
system.mem_ctrls.perBankWrBursts::8                 0                       # Per bank write bursts
system.mem_ctrls.perBankWrBursts::9                 0                       # Per bank write bursts
system.mem_ctrls.perBankWrBursts::10                0                       # Per bank write bursts
system.mem_ctrls.perBankWrBursts::11                0                       # Per bank write bursts
system.mem_ctrls.perBankWrBursts::12                0                       # Per bank write bursts
system.mem_ctrls.perBankWrBursts::13                0                       # Per bank write bursts
system.mem_ctrls.perBankWrBursts::14                0                       # Per bank write bursts
system.mem_ctrls.perBankWrBursts::15                0                       # Per bank write bursts
system.mem_ctrls.numRdRetry                         0                       # Number of times read queue was full causing retry
system.mem_ctrls.numWrRetry                         0                       # Number of times write queue was full causing retry
system.mem_ctrls.totGap                     253508500                       # Total gap between requests
system.mem_ctrls.readPktSize::0                     0                       # Read request sizes (log2)
system.mem_ctrls.readPktSize::1                     0                       # Read request sizes (log2)
system.mem_ctrls.readPktSize::2                     0                       # Read request sizes (log2)
system.mem_ctrls.readPktSize::3                     0                       # Read request sizes (log2)
system.mem_ctrls.readPktSize::4                     0                       # Read request sizes (log2)
system.mem_ctrls.readPktSize::5                     0                       # Read request sizes (log2)
system.mem_ctrls.readPktSize::6                  2366                       # Read request sizes (log2)
system.mem_ctrls.writePktSize::0                    0                       # Write request sizes (log2)
system.mem_ctrls.writePktSize::1                    0                       # Write request sizes (log2)
system.mem_ctrls.writePktSize::2                    0                       # Write request sizes (log2)
system.mem_ctrls.writePktSize::3                    0                       # Write request sizes (log2)
system.mem_ctrls.writePktSize::4                    0                       # Write request sizes (log2)
system.mem_ctrls.writePktSize::5                    0                       # Write request sizes (log2)
system.mem_ctrls.writePktSize::6                    0                       # Write request sizes (log2)
system.mem_ctrls.rdQLenPdf::0                    1350                       # What read queue length does an incoming req see
system.mem_ctrls.rdQLenPdf::1                     893                       # What read queue length does an incoming req see
system.mem_ctrls.rdQLenPdf::2                      75                       # What read queue length does an incoming req see
system.mem_ctrls.rdQLenPdf::3                      26                       # What read queue length does an incoming req see
system.mem_ctrls.rdQLenPdf::4                      13                       # What read queue length does an incoming req see
system.mem_ctrls.rdQLenPdf::5                       4                       # What read queue length does an incoming req see
system.mem_ctrls.rdQLenPdf::6                       2                       # What read queue length does an incoming req see
system.mem_ctrls.rdQLenPdf::7                       3                       # What read queue length does an incoming req see
system.mem_ctrls.rdQLenPdf::8                       0                       # What read queue length does an incoming req see
system.mem_ctrls.rdQLenPdf::9                       0                       # What read queue length does an incoming req see
system.mem_ctrls.rdQLenPdf::10                      0                       # What read queue length does an incoming req see
system.mem_ctrls.rdQLenPdf::11                      0                       # What read queue length does an incoming req see
system.mem_ctrls.rdQLenPdf::12                      0                       # What read queue length does an incoming req see
system.mem_ctrls.rdQLenPdf::13                      0                       # What read queue length does an incoming req see
system.mem_ctrls.rdQLenPdf::14                      0                       # What read queue length does an incoming req see
system.mem_ctrls.rdQLenPdf::15                      0                       # What read queue length does an incoming req see
system.mem_ctrls.rdQLenPdf::16                      0                       # What read queue length does an incoming req see
system.mem_ctrls.rdQLenPdf::17                      0                       # What read queue length does an incoming req see
system.mem_ctrls.rdQLenPdf::18                      0                       # What read queue length does an incoming req see
system.mem_ctrls.rdQLenPdf::19                      0                       # What read queue length does an incoming req see
system.mem_ctrls.rdQLenPdf::20                      0                       # What read queue length does an incoming req see
system.mem_ctrls.rdQLenPdf::21                      0                       # What read queue length does an incoming req see
system.mem_ctrls.rdQLenPdf::22                      0                       # What read queue length does an incoming req see
system.mem_ctrls.rdQLenPdf::23                      0                       # What read queue length does an incoming req see
system.mem_ctrls.rdQLenPdf::24                      0                       # What read queue length does an incoming req see
system.mem_ctrls.rdQLenPdf::25                      0                       # What read queue length does an incoming req see
system.mem_ctrls.rdQLenPdf::26                      0                       # What read queue length does an incoming req see
system.mem_ctrls.rdQLenPdf::27                      0                       # What read queue length does an incoming req see
system.mem_ctrls.rdQLenPdf::28                      0                       # What read queue length does an incoming req see
system.mem_ctrls.rdQLenPdf::29                      0                       # What read queue length does an incoming req see
system.mem_ctrls.rdQLenPdf::30                      0                       # What read queue length does an incoming req see
system.mem_ctrls.rdQLenPdf::31                      0                       # What read queue length does an incoming req see
system.mem_ctrls.wrQLenPdf::0                       0                       # What write queue length does an incoming req see
system.mem_ctrls.wrQLenPdf::1                       0                       # What write queue length does an incoming req see
system.mem_ctrls.wrQLenPdf::2                       0                       # What write queue length does an incoming req see
system.mem_ctrls.wrQLenPdf::3                       0                       # What write queue length does an incoming req see
system.mem_ctrls.wrQLenPdf::4                       0                       # What write queue length does an incoming req see
system.mem_ctrls.wrQLenPdf::5                       0                       # What write queue length does an incoming req see
system.mem_ctrls.wrQLenPdf::6                       0                       # What write queue length does an incoming req see
system.mem_ctrls.wrQLenPdf::7                       0                       # What write queue length does an incoming req see
system.mem_ctrls.wrQLenPdf::8                       0                       # What write queue length does an incoming req see
system.mem_ctrls.wrQLenPdf::9                       0                       # What write queue length does an incoming req see
system.mem_ctrls.wrQLenPdf::10                      0                       # What write queue length does an incoming req see
system.mem_ctrls.wrQLenPdf::11                      0                       # What write queue length does an incoming req see
system.mem_ctrls.wrQLenPdf::12                      0                       # What write queue length does an incoming req see
system.mem_ctrls.wrQLenPdf::13                      0                       # What write queue length does an incoming req see
system.mem_ctrls.wrQLenPdf::14                      0                       # What write queue length does an incoming req see
system.mem_ctrls.wrQLenPdf::15                      0                       # What write queue length does an incoming req see
system.mem_ctrls.wrQLenPdf::16                      0                       # What write queue length does an incoming req see
system.mem_ctrls.wrQLenPdf::17                      0                       # What write queue length does an incoming req see
system.mem_ctrls.wrQLenPdf::18                      0                       # What write queue length does an incoming req see
system.mem_ctrls.wrQLenPdf::19                      0                       # What write queue length does an incoming req see
system.mem_ctrls.wrQLenPdf::20                      0                       # What write queue length does an incoming req see
system.mem_ctrls.wrQLenPdf::21                      0                       # What write queue length does an incoming req see
system.mem_ctrls.wrQLenPdf::22                      0                       # What write queue length does an incoming req see
system.mem_ctrls.wrQLenPdf::23                      0                       # What write queue length does an incoming req see
system.mem_ctrls.wrQLenPdf::24                      0                       # What write queue length does an incoming req see
system.mem_ctrls.wrQLenPdf::25                      0                       # What write queue length does an incoming req see
system.mem_ctrls.wrQLenPdf::26                      0                       # What write queue length does an incoming req see
system.mem_ctrls.wrQLenPdf::27                      0                       # What write queue length does an incoming req see
system.mem_ctrls.wrQLenPdf::28                      0                       # What write queue length does an incoming req see
system.mem_ctrls.wrQLenPdf::29                      0                       # What write queue length does an incoming req see
system.mem_ctrls.wrQLenPdf::30                      0                       # What write queue length does an incoming req see
system.mem_ctrls.wrQLenPdf::31                      0                       # What write queue length does an incoming req see
system.mem_ctrls.wrQLenPdf::32                      0                       # What write queue length does an incoming req see
system.mem_ctrls.wrQLenPdf::33                      0                       # What write queue length does an incoming req see
system.mem_ctrls.wrQLenPdf::34                      0                       # What write queue length does an incoming req see
system.mem_ctrls.wrQLenPdf::35                      0                       # What write queue length does an incoming req see
system.mem_ctrls.wrQLenPdf::36                      0                       # What write queue length does an incoming req see
system.mem_ctrls.wrQLenPdf::37                      0                       # What write queue length does an incoming req see
system.mem_ctrls.wrQLenPdf::38                      0                       # What write queue length does an incoming req see
system.mem_ctrls.wrQLenPdf::39                      0                       # What write queue length does an incoming req see
system.mem_ctrls.wrQLenPdf::40                      0                       # What write queue length does an incoming req see
system.mem_ctrls.wrQLenPdf::41                      0                       # What write queue length does an incoming req see
system.mem_ctrls.wrQLenPdf::42                      0                       # What write queue length does an incoming req see
system.mem_ctrls.wrQLenPdf::43                      0                       # What write queue length does an incoming req see
system.mem_ctrls.wrQLenPdf::44                      0                       # What write queue length does an incoming req see
system.mem_ctrls.wrQLenPdf::45                      0                       # What write queue length does an incoming req see
system.mem_ctrls.wrQLenPdf::46                      0                       # What write queue length does an incoming req see
system.mem_ctrls.wrQLenPdf::47                      0                       # What write queue length does an incoming req see
system.mem_ctrls.wrQLenPdf::48                      0                       # What write queue length does an incoming req see
system.mem_ctrls.wrQLenPdf::49                      0                       # What write queue length does an incoming req see
system.mem_ctrls.wrQLenPdf::50                      0                       # What write queue length does an incoming req see
system.mem_ctrls.wrQLenPdf::51                      0                       # What write queue length does an incoming req see
system.mem_ctrls.wrQLenPdf::52                      0                       # What write queue length does an incoming req see
system.mem_ctrls.wrQLenPdf::53                      0                       # What write queue length does an incoming req see
system.mem_ctrls.wrQLenPdf::54                      0                       # What write queue length does an incoming req see
system.mem_ctrls.wrQLenPdf::55                      0                       # What write queue length does an incoming req see
system.mem_ctrls.wrQLenPdf::56                      0                       # What write queue length does an incoming req see
system.mem_ctrls.wrQLenPdf::57                      0                       # What write queue length does an incoming req see
system.mem_ctrls.wrQLenPdf::58                      0                       # What write queue length does an incoming req see
system.mem_ctrls.wrQLenPdf::59                      0                       # What write queue length does an incoming req see
system.mem_ctrls.wrQLenPdf::60                      0                       # What write queue length does an incoming req see
system.mem_ctrls.wrQLenPdf::61                      0                       # What write queue length does an incoming req see
system.mem_ctrls.wrQLenPdf::62                      0                       # What write queue length does an incoming req see
system.mem_ctrls.wrQLenPdf::63                      0                       # What write queue length does an incoming req see
system.mem_ctrls.bytesPerActivate::samples          308                       # Bytes accessed per row activation
system.mem_ctrls.bytesPerActivate::mean    486.025974                       # Bytes accessed per row activation
system.mem_ctrls.bytesPerActivate::gmean   274.450107                       # Bytes accessed per row activation
system.mem_ctrls.bytesPerActivate::stdev   422.516055                       # Bytes accessed per row activation
system.mem_ctrls.bytesPerActivate::0-127           94     30.52%     30.52% # Bytes accessed per row activation
system.mem_ctrls.bytesPerActivate::128-255           44     14.29%     44.81% # Bytes accessed per row activation
system.mem_ctrls.bytesPerActivate::256-383           28      9.09%     53.90% # Bytes accessed per row activation
system.mem_ctrls.bytesPerActivate::384-511           12      3.90%     57.79% # Bytes accessed per row activation
system.mem_ctrls.bytesPerActivate::512-639            7      2.27%     60.06% # Bytes accessed per row activation
system.mem_ctrls.bytesPerActivate::640-767            8      2.60%     62.66% # Bytes accessed per row activation
system.mem_ctrls.bytesPerActivate::768-895            7      2.27%     64.94% # Bytes accessed per row activation
system.mem_ctrls.bytesPerActivate::896-1023            8      2.60%     67.53% # Bytes accessed per row activation
system.mem_ctrls.bytesPerActivate::1024-1151          100     32.47%    100.00% # Bytes accessed per row activation
system.mem_ctrls.bytesPerActivate::total          308                       # Bytes accessed per row activation
system.mem_ctrls.totQLat                     15751750                       # Total ticks spent queuing
system.mem_ctrls.totMemAccLat                60114250                       # Total ticks spent from burst creation until serviced by the DRAM
system.mem_ctrls.totBusLat                   11830000                       # Total ticks spent in databus transfers
system.mem_ctrls.avgQLat                      6657.54                       # Average queueing delay per DRAM burst
system.mem_ctrls.avgBusLat                    5000.00                       # Average bus latency per DRAM burst
system.mem_ctrls.avgMemAccLat                25407.54                       # Average memory access latency per DRAM burst
system.mem_ctrls.avgRdBW                       597.21                       # Average DRAM read bandwidth in MiByte/s
system.mem_ctrls.avgWrBW                         0.00                       # Average achieved write bandwidth in MiByte/s
system.mem_ctrls.avgRdBWSys                    597.21                       # Average system read bandwidth in MiByte/s
system.mem_ctrls.avgWrBWSys                      0.00                       # Average system write bandwidth in MiByte/s
system.mem_ctrls.peakBW                      12800.00                       # Theoretical peak bandwidth in MiByte/s
system.mem_ctrls.busUtil                         4.67                       # Data bus utilization in percentage
system.mem_ctrls.busUtilRead                     4.67                       # Data bus utilization in percentage for reads
system.mem_ctrls.busUtilWrite                    0.00                       # Data bus utilization in percentage for writes
system.mem_ctrls.avgRdQLen                       1.30                       # Average read queue length when enqueuing
system.mem_ctrls.avgWrQLen                       0.00                       # Average write queue length when enqueuing
system.mem_ctrls.readRowHits                     2048                       # Number of row buffer hits during reads
system.mem_ctrls.writeRowHits                       0                       # Number of row buffer hits during writes
system.mem_ctrls.readRowHitRate                 86.56                       # Row buffer hit rate for reads
system.mem_ctrls.writeRowHitRate                  nan                       # Row buffer hit rate for writes
system.mem_ctrls.avgGap                     107146.45                       # Average gap between requests
system.mem_ctrls.pageHitRate                    86.56                       # Row buffer hit rate, read and write combined
system.mem_ctrls_0.actEnergy                  1595160                       # Energy for activate commands per rank (pJ)
system.mem_ctrls_0.preEnergy                   870375                       # Energy for precharge commands per rank (pJ)
system.mem_ctrls_0.readEnergy                 9726600                       # Energy for read commands per rank (pJ)
system.mem_ctrls_0.writeEnergy                      0                       # Energy for write commands per rank (pJ)
system.mem_ctrls_0.refreshEnergy             16273920                       # Energy for refresh commands per rank (pJ)
system.mem_ctrls_0.actBackEnergy             53780355                       # Energy for active background per rank (pJ)
system.mem_ctrls_0.preBackEnergy            102468000                       # Energy for precharge background per rank (pJ)
system.mem_ctrls_0.totalEnergy              184714410                       # Total energy per rank (pJ)
system.mem_ctrls_0.averagePower            740.616604                       # Core power per rank (mW)
system.mem_ctrls_0.memoryStateTime::IDLE    170657000                       # Time in different power states
system.mem_ctrls_0.memoryStateTime::REF       8320000                       # Time in different power states
system.mem_ctrls_0.memoryStateTime::PRE_PDN            0                       # Time in different power states
system.mem_ctrls_0.memoryStateTime::ACT      71163000                       # Time in different power states
system.mem_ctrls_0.memoryStateTime::ACT_PDN            0                       # Time in different power states
system.mem_ctrls_1.actEnergy                   672840                       # Energy for activate commands per rank (pJ)
system.mem_ctrls_1.preEnergy                   367125                       # Energy for precharge commands per rank (pJ)
system.mem_ctrls_1.readEnergy                 8283600                       # Energy for read commands per rank (pJ)
system.mem_ctrls_1.writeEnergy                      0                       # Energy for write commands per rank (pJ)
system.mem_ctrls_1.refreshEnergy             16273920                       # Energy for refresh commands per rank (pJ)
system.mem_ctrls_1.actBackEnergy             57266190                       # Energy for active background per rank (pJ)
system.mem_ctrls_1.preBackEnergy             99410250                       # Energy for precharge background per rank (pJ)
system.mem_ctrls_1.totalEnergy              182273925                       # Total energy per rank (pJ)
system.mem_ctrls_1.averagePower            730.831425                       # Core power per rank (mW)
system.mem_ctrls_1.memoryStateTime::IDLE    166609750                       # Time in different power states
system.mem_ctrls_1.memoryStateTime::REF       8320000                       # Time in different power states
system.mem_ctrls_1.memoryStateTime::PRE_PDN            0                       # Time in different power states
system.mem_ctrls_1.memoryStateTime::ACT      76300250                       # Time in different power states
system.mem_ctrls_1.memoryStateTime::ACT_PDN            0                       # Time in different power states
system.cpu0.branchPred.lookups                  57713                       # Number of BP lookups
system.cpu0.branchPred.condPredicted            55306                       # Number of conditional branches predicted
system.cpu0.branchPred.condIncorrect             1568                       # Number of conditional branches incorrect
system.cpu0.branchPred.BTBLookups               55431                       # Number of BTB lookups
system.cpu0.branchPred.BTBHits                  51930                       # Number of BTB hits
system.cpu0.branchPred.BTBCorrect                   0                       # Number of correct BTB predictions (this stat may not work properly.
system.cpu0.branchPred.BTBHitPct            93.684040                       # BTB Hit Percentage
system.cpu0.branchPred.usedRAS                    878                       # Number of times the RAS was used to get a target.
system.cpu0.branchPred.RASInCorrect                14                       # Number of incorrect RAS predictions.
system.cpu_voltage_domain.voltage                   1                       # Voltage in Volts
system.cpu_clk_domain.clock                       500                       # Clock period in ticks
system.cpu0.dstage2_mmu.stage2_tlb.walker.walks            0                       # Table walker walks requested
system.cpu0.dstage2_mmu.stage2_tlb.walker.walkRequestOrigin_Requested::Data            0                       # Table walker requests started/completed, data/inst
system.cpu0.dstage2_mmu.stage2_tlb.walker.walkRequestOrigin_Requested::Inst            0                       # Table walker requests started/completed, data/inst
system.cpu0.dstage2_mmu.stage2_tlb.walker.walkRequestOrigin_Requested::total            0                       # Table walker requests started/completed, data/inst
system.cpu0.dstage2_mmu.stage2_tlb.walker.walkRequestOrigin_Completed::Data            0                       # Table walker requests started/completed, data/inst
system.cpu0.dstage2_mmu.stage2_tlb.walker.walkRequestOrigin_Completed::Inst            0                       # Table walker requests started/completed, data/inst
system.cpu0.dstage2_mmu.stage2_tlb.walker.walkRequestOrigin_Completed::total            0                       # Table walker requests started/completed, data/inst
system.cpu0.dstage2_mmu.stage2_tlb.walker.walkRequestOrigin::total            0                       # Table walker requests started/completed, data/inst
system.cpu0.dstage2_mmu.stage2_tlb.inst_hits            0                       # ITB inst hits
system.cpu0.dstage2_mmu.stage2_tlb.inst_misses            0                       # ITB inst misses
system.cpu0.dstage2_mmu.stage2_tlb.read_hits            0                       # DTB read hits
system.cpu0.dstage2_mmu.stage2_tlb.read_misses            0                       # DTB read misses
system.cpu0.dstage2_mmu.stage2_tlb.write_hits            0                       # DTB write hits
system.cpu0.dstage2_mmu.stage2_tlb.write_misses            0                       # DTB write misses
system.cpu0.dstage2_mmu.stage2_tlb.flush_tlb            0                       # Number of times complete TLB was flushed
system.cpu0.dstage2_mmu.stage2_tlb.flush_tlb_mva            0                       # Number of times TLB was flushed by MVA
system.cpu0.dstage2_mmu.stage2_tlb.flush_tlb_mva_asid            0                       # Number of times TLB was flushed by MVA & ASID
system.cpu0.dstage2_mmu.stage2_tlb.flush_tlb_asid            0                       # Number of times TLB was flushed by ASID
system.cpu0.dstage2_mmu.stage2_tlb.flush_entries            0                       # Number of entries that have been flushed from TLB
system.cpu0.dstage2_mmu.stage2_tlb.align_faults            0                       # Number of TLB faults due to alignment restrictions
system.cpu0.dstage2_mmu.stage2_tlb.prefetch_faults            0                       # Number of TLB faults due to prefetch
system.cpu0.dstage2_mmu.stage2_tlb.domain_faults            0                       # Number of TLB faults due to domain restrictions
system.cpu0.dstage2_mmu.stage2_tlb.perms_faults            0                       # Number of TLB faults due to permissions restrictions
system.cpu0.dstage2_mmu.stage2_tlb.read_accesses            0                       # DTB read accesses
system.cpu0.dstage2_mmu.stage2_tlb.write_accesses            0                       # DTB write accesses
system.cpu0.dstage2_mmu.stage2_tlb.inst_accesses            0                       # ITB inst accesses
system.cpu0.dstage2_mmu.stage2_tlb.hits             0                       # DTB hits
system.cpu0.dstage2_mmu.stage2_tlb.misses            0                       # DTB misses
system.cpu0.dstage2_mmu.stage2_tlb.accesses            0                       # DTB accesses
system.cpu0.dtb.walker.walks                        0                       # Table walker walks requested
system.cpu0.dtb.walker.walkRequestOrigin_Requested::Data            0                       # Table walker requests started/completed, data/inst
system.cpu0.dtb.walker.walkRequestOrigin_Requested::Inst            0                       # Table walker requests started/completed, data/inst
system.cpu0.dtb.walker.walkRequestOrigin_Requested::total            0                       # Table walker requests started/completed, data/inst
system.cpu0.dtb.walker.walkRequestOrigin_Completed::Data            0                       # Table walker requests started/completed, data/inst
system.cpu0.dtb.walker.walkRequestOrigin_Completed::Inst            0                       # Table walker requests started/completed, data/inst
system.cpu0.dtb.walker.walkRequestOrigin_Completed::total            0                       # Table walker requests started/completed, data/inst
system.cpu0.dtb.walker.walkRequestOrigin::total            0                       # Table walker requests started/completed, data/inst
system.cpu0.dtb.inst_hits                           0                       # ITB inst hits
system.cpu0.dtb.inst_misses                         0                       # ITB inst misses
system.cpu0.dtb.read_hits                           0                       # DTB read hits
system.cpu0.dtb.read_misses                         0                       # DTB read misses
system.cpu0.dtb.write_hits                          0                       # DTB write hits
system.cpu0.dtb.write_misses                        0                       # DTB write misses
system.cpu0.dtb.flush_tlb                           0                       # Number of times complete TLB was flushed
system.cpu0.dtb.flush_tlb_mva                       0                       # Number of times TLB was flushed by MVA
system.cpu0.dtb.flush_tlb_mva_asid                  0                       # Number of times TLB was flushed by MVA & ASID
system.cpu0.dtb.flush_tlb_asid                      0                       # Number of times TLB was flushed by ASID
system.cpu0.dtb.flush_entries                       0                       # Number of entries that have been flushed from TLB
system.cpu0.dtb.align_faults                        0                       # Number of TLB faults due to alignment restrictions
system.cpu0.dtb.prefetch_faults                     0                       # Number of TLB faults due to prefetch
system.cpu0.dtb.domain_faults                       0                       # Number of TLB faults due to domain restrictions
system.cpu0.dtb.perms_faults                        0                       # Number of TLB faults due to permissions restrictions
system.cpu0.dtb.read_accesses                       0                       # DTB read accesses
system.cpu0.dtb.write_accesses                      0                       # DTB write accesses
system.cpu0.dtb.inst_accesses                       0                       # ITB inst accesses
system.cpu0.dtb.hits                                0                       # DTB hits
system.cpu0.dtb.misses                              0                       # DTB misses
system.cpu0.dtb.accesses                            0                       # DTB accesses
system.cpu0.istage2_mmu.stage2_tlb.walker.walks            0                       # Table walker walks requested
system.cpu0.istage2_mmu.stage2_tlb.walker.walkRequestOrigin_Requested::Data            0                       # Table walker requests started/completed, data/inst
system.cpu0.istage2_mmu.stage2_tlb.walker.walkRequestOrigin_Requested::Inst            0                       # Table walker requests started/completed, data/inst
system.cpu0.istage2_mmu.stage2_tlb.walker.walkRequestOrigin_Requested::total            0                       # Table walker requests started/completed, data/inst
system.cpu0.istage2_mmu.stage2_tlb.walker.walkRequestOrigin_Completed::Data            0                       # Table walker requests started/completed, data/inst
system.cpu0.istage2_mmu.stage2_tlb.walker.walkRequestOrigin_Completed::Inst            0                       # Table walker requests started/completed, data/inst
system.cpu0.istage2_mmu.stage2_tlb.walker.walkRequestOrigin_Completed::total            0                       # Table walker requests started/completed, data/inst
system.cpu0.istage2_mmu.stage2_tlb.walker.walkRequestOrigin::total            0                       # Table walker requests started/completed, data/inst
system.cpu0.istage2_mmu.stage2_tlb.inst_hits            0                       # ITB inst hits
system.cpu0.istage2_mmu.stage2_tlb.inst_misses            0                       # ITB inst misses
system.cpu0.istage2_mmu.stage2_tlb.read_hits            0                       # DTB read hits
system.cpu0.istage2_mmu.stage2_tlb.read_misses            0                       # DTB read misses
system.cpu0.istage2_mmu.stage2_tlb.write_hits            0                       # DTB write hits
system.cpu0.istage2_mmu.stage2_tlb.write_misses            0                       # DTB write misses
system.cpu0.istage2_mmu.stage2_tlb.flush_tlb            0                       # Number of times complete TLB was flushed
system.cpu0.istage2_mmu.stage2_tlb.flush_tlb_mva            0                       # Number of times TLB was flushed by MVA
system.cpu0.istage2_mmu.stage2_tlb.flush_tlb_mva_asid            0                       # Number of times TLB was flushed by MVA & ASID
system.cpu0.istage2_mmu.stage2_tlb.flush_tlb_asid            0                       # Number of times TLB was flushed by ASID
system.cpu0.istage2_mmu.stage2_tlb.flush_entries            0                       # Number of entries that have been flushed from TLB
system.cpu0.istage2_mmu.stage2_tlb.align_faults            0                       # Number of TLB faults due to alignment restrictions
system.cpu0.istage2_mmu.stage2_tlb.prefetch_faults            0                       # Number of TLB faults due to prefetch
system.cpu0.istage2_mmu.stage2_tlb.domain_faults            0                       # Number of TLB faults due to domain restrictions
system.cpu0.istage2_mmu.stage2_tlb.perms_faults            0                       # Number of TLB faults due to permissions restrictions
system.cpu0.istage2_mmu.stage2_tlb.read_accesses            0                       # DTB read accesses
system.cpu0.istage2_mmu.stage2_tlb.write_accesses            0                       # DTB write accesses
system.cpu0.istage2_mmu.stage2_tlb.inst_accesses            0                       # ITB inst accesses
system.cpu0.istage2_mmu.stage2_tlb.hits             0                       # DTB hits
system.cpu0.istage2_mmu.stage2_tlb.misses            0                       # DTB misses
system.cpu0.istage2_mmu.stage2_tlb.accesses            0                       # DTB accesses
system.cpu0.itb.walker.walks                        0                       # Table walker walks requested
system.cpu0.itb.walker.walkRequestOrigin_Requested::Data            0                       # Table walker requests started/completed, data/inst
system.cpu0.itb.walker.walkRequestOrigin_Requested::Inst            0                       # Table walker requests started/completed, data/inst
system.cpu0.itb.walker.walkRequestOrigin_Requested::total            0                       # Table walker requests started/completed, data/inst
system.cpu0.itb.walker.walkRequestOrigin_Completed::Data            0                       # Table walker requests started/completed, data/inst
system.cpu0.itb.walker.walkRequestOrigin_Completed::Inst            0                       # Table walker requests started/completed, data/inst
system.cpu0.itb.walker.walkRequestOrigin_Completed::total            0                       # Table walker requests started/completed, data/inst
system.cpu0.itb.walker.walkRequestOrigin::total            0                       # Table walker requests started/completed, data/inst
system.cpu0.itb.inst_hits                           0                       # ITB inst hits
system.cpu0.itb.inst_misses                         0                       # ITB inst misses
system.cpu0.itb.read_hits                           0                       # DTB read hits
system.cpu0.itb.read_misses                         0                       # DTB read misses
system.cpu0.itb.write_hits                          0                       # DTB write hits
system.cpu0.itb.write_misses                        0                       # DTB write misses
system.cpu0.itb.flush_tlb                           0                       # Number of times complete TLB was flushed
system.cpu0.itb.flush_tlb_mva                       0                       # Number of times TLB was flushed by MVA
system.cpu0.itb.flush_tlb_mva_asid                  0                       # Number of times TLB was flushed by MVA & ASID
system.cpu0.itb.flush_tlb_asid                      0                       # Number of times TLB was flushed by ASID
system.cpu0.itb.flush_entries                       0                       # Number of entries that have been flushed from TLB
system.cpu0.itb.align_faults                        0                       # Number of TLB faults due to alignment restrictions
system.cpu0.itb.prefetch_faults                     0                       # Number of TLB faults due to prefetch
system.cpu0.itb.domain_faults                       0                       # Number of TLB faults due to domain restrictions
system.cpu0.itb.perms_faults                        0                       # Number of TLB faults due to permissions restrictions
system.cpu0.itb.read_accesses                       0                       # DTB read accesses
system.cpu0.itb.write_accesses                      0                       # DTB write accesses
system.cpu0.itb.inst_accesses                       0                       # ITB inst accesses
system.cpu0.itb.hits                                0                       # DTB hits
system.cpu0.itb.misses                              0                       # DTB misses
system.cpu0.itb.accesses                            0                       # DTB accesses
system.cpu0.workload.num_syscalls                 124                       # Number of system calls
system.cpu0.numCycles                          507105                       # number of cpu cycles simulated
system.cpu0.numWorkItemsStarted                     0                       # number of work items this cpu started
system.cpu0.numWorkItemsCompleted                   0                       # number of work items this cpu completed
system.cpu0.fetch.icacheStallCycles            102249                       # Number of cycles fetch is stalled on an Icache miss
system.cpu0.fetch.Insts                        713920                       # Number of instructions fetch has processed
system.cpu0.fetch.Branches                      57713                       # Number of branches that fetch encountered
system.cpu0.fetch.predictedBranches             52808                       # Number of branches that fetch has predicted taken
system.cpu0.fetch.Cycles                       361839                       # Number of cycles fetch has run and was not squashing or blocked
system.cpu0.fetch.SquashCycles                   3253                       # Number of cycles fetch has spent squashing
system.cpu0.fetch.PendingTrapStallCycles            4                       # Number of stall cycles due to pending traps
system.cpu0.fetch.CacheLines                    88206                       # Number of cache lines fetched
system.cpu0.fetch.IcacheSquashes                  668                       # Number of outstanding Icache misses that were squashed
system.cpu0.fetch.rateDist::samples            465718                       # Number of instructions fetched each cycle (Total)
system.cpu0.fetch.rateDist::mean             1.603354                       # Number of instructions fetched each cycle (Total)
system.cpu0.fetch.rateDist::stdev            2.782796                       # Number of instructions fetched each cycle (Total)
system.cpu0.fetch.rateDist::underflows              0      0.00%      0.00% # Number of instructions fetched each cycle (Total)
system.cpu0.fetch.rateDist::0                  326068     70.01%     70.01% # Number of instructions fetched each cycle (Total)
system.cpu0.fetch.rateDist::1                   12936      2.78%     72.79% # Number of instructions fetched each cycle (Total)
system.cpu0.fetch.rateDist::2                   12312      2.64%     75.44% # Number of instructions fetched each cycle (Total)
system.cpu0.fetch.rateDist::3                   12224      2.62%     78.06% # Number of instructions fetched each cycle (Total)
system.cpu0.fetch.rateDist::4                   15548      3.34%     81.40% # Number of instructions fetched each cycle (Total)
system.cpu0.fetch.rateDist::5                    7991      1.72%     83.11% # Number of instructions fetched each cycle (Total)
system.cpu0.fetch.rateDist::6                   15897      3.41%     86.53% # Number of instructions fetched each cycle (Total)
system.cpu0.fetch.rateDist::7                   26986      5.79%     92.32% # Number of instructions fetched each cycle (Total)
system.cpu0.fetch.rateDist::8                   35756      7.68%    100.00% # Number of instructions fetched each cycle (Total)
system.cpu0.fetch.rateDist::overflows               0      0.00%    100.00% # Number of instructions fetched each cycle (Total)
system.cpu0.fetch.rateDist::min_value               0                       # Number of instructions fetched each cycle (Total)
system.cpu0.fetch.rateDist::max_value               8                       # Number of instructions fetched each cycle (Total)
system.cpu0.fetch.rateDist::total              465718                       # Number of instructions fetched each cycle (Total)
system.cpu0.fetch.branchRate                 0.113809                       # Number of branch fetches per cycle
system.cpu0.fetch.rate                       1.407835                       # Number of inst fetches per cycle
system.cpu0.decode.IdleCycles                   45559                       # Number of cycles decode is idle
system.cpu0.decode.BlockedCycles               325568                       # Number of cycles decode is blocked
system.cpu0.decode.RunCycles                    20875                       # Number of cycles decode is running
system.cpu0.decode.UnblockCycles                72396                       # Number of cycles decode is unblocking
system.cpu0.decode.SquashCycles                  1320                       # Number of cycles decode is squashing
system.cpu0.decode.BranchResolved                1070                       # Number of times decode resolved a branch
system.cpu0.decode.BranchMispred                  318                       # Number of times decode detected a branch misprediction
system.cpu0.decode.DecodedInsts                715288                       # Number of instructions handled by decode
system.cpu0.decode.SquashedInsts                 1156                       # Number of squashed instructions handled by decode
system.cpu0.rename.SquashCycles                  1320                       # Number of cycles rename is squashing
system.cpu0.rename.IdleCycles                   68782                       # Number of cycles rename is idle
system.cpu0.rename.BlockCycles                  20822                       # Number of cycles rename is blocking
system.cpu0.rename.serializeStallCycles         10785                       # count of cycles rename stalled for serializing inst
system.cpu0.rename.RunCycles                    69688                       # Number of cycles rename is running
system.cpu0.rename.UnblockCycles               294321                       # Number of cycles rename is unblocking
system.cpu0.rename.RenamedInsts                711435                       # Number of instructions processed by rename
system.cpu0.rename.ROBFullEvents                    5                       # Number of times rename has blocked due to ROB full
system.cpu0.rename.IQFullEvents                164095                       # Number of times rename has blocked due to IQ full
system.cpu0.rename.LQFullEvents                  3926                       # Number of times rename has blocked due to LQ full
system.cpu0.rename.SQFullEvents                119156                       # Number of times rename has blocked due to SQ full
system.cpu0.rename.RenamedOperands             889058                       # Number of destination operands rename has renamed
system.cpu0.rename.RenameLookups              3531620                       # Number of register rename lookups that rename has made
system.cpu0.rename.int_rename_lookups         1165861                       # Number of integer rename lookups
system.cpu0.rename.fp_rename_lookups               22                       # Number of floating rename lookups
system.cpu0.rename.CommittedMaps               821041                       # Number of HB maps that are committed
system.cpu0.rename.UndoneMaps                   68017                       # Number of HB maps that are undone due to squashing
system.cpu0.rename.serializingInsts               140                       # count of serializing insts renamed
system.cpu0.rename.tempSerializingInsts           140                       # count of temporary serializing insts renamed
system.cpu0.rename.skidInsts                   354389                       # count of insts added to the skid buffer
system.cpu0.memDep0.insertedLoads              147515                       # Number of loads inserted to the mem dependence unit.
system.cpu0.memDep0.insertedStores              49684                       # Number of stores inserted to the mem dependence unit.
system.cpu0.memDep0.conflictingLoads             1513                       # Number of conflicting loads.
system.cpu0.memDep0.conflictingStores             426                       # Number of conflicting stores.
system.cpu0.iq.iqInstsAdded                    706105                       # Number of instructions added to the IQ (excludes non-spec)
system.cpu0.iq.iqNonSpecInstsAdded                283                       # Number of non-speculative instructions added to the IQ
system.cpu0.iq.iqInstsIssued                   661527                       # Number of instructions issued
system.cpu0.iq.iqSquashedInstsIssued             3491                       # Number of squashed instructions issued
system.cpu0.iq.iqSquashedInstsExamined          51612                       # Number of squashed instructions iterated over during squash; mainly for profiling
system.cpu0.iq.iqSquashedOperandsExamined       226067                       # Number of squashed operands that are examined and possibly removed from graph
system.cpu0.iq.iqSquashedNonSpecRemoved            86                       # Number of squashed non-spec instructions that were removed
system.cpu0.iq.issued_per_cycle::samples       465718                       # Number of insts issued each cycle
system.cpu0.iq.issued_per_cycle::mean        1.420445                       # Number of insts issued each cycle
system.cpu0.iq.issued_per_cycle::stdev       0.895632                       # Number of insts issued each cycle
system.cpu0.iq.issued_per_cycle::underflows            0      0.00%      0.00% # Number of insts issued each cycle
system.cpu0.iq.issued_per_cycle::0             130048     27.92%     27.92% # Number of insts issued each cycle
system.cpu0.iq.issued_per_cycle::1               9813      2.11%     30.03% # Number of insts issued each cycle
system.cpu0.iq.issued_per_cycle::2             325857     69.97%    100.00% # Number of insts issued each cycle
system.cpu0.iq.issued_per_cycle::overflows            0      0.00%    100.00% # Number of insts issued each cycle
system.cpu0.iq.issued_per_cycle::min_value            0                       # Number of insts issued each cycle
system.cpu0.iq.issued_per_cycle::max_value            2                       # Number of insts issued each cycle
system.cpu0.iq.issued_per_cycle::total         465718                       # Number of insts issued each cycle
system.cpu0.iq.fu_full::No_OpClass                  0                       # attempts to use FU when none available
system.cpu0.iq.fu_full::IntAlu                      0                       # attempts to use FU when none available
system.cpu0.iq.fu_full::IntMult                     0                       # attempts to use FU when none available
system.cpu0.iq.fu_full::IntDiv                      0                       # attempts to use FU when none available
system.cpu0.iq.fu_full::FloatAdd                    0                       # attempts to use FU when none available
system.cpu0.iq.fu_full::FloatCmp                    0                       # attempts to use FU when none available
system.cpu0.iq.fu_full::FloatCvt                    0                       # attempts to use FU when none available
system.cpu0.iq.fu_full::FloatMult                   0                       # attempts to use FU when none available
system.cpu0.iq.fu_full::FloatDiv                    0                       # attempts to use FU when none available
system.cpu0.iq.fu_full::FloatSqrt                   0                       # attempts to use FU when none available
system.cpu0.iq.fu_full::SimdAdd                     0                       # attempts to use FU when none available
system.cpu0.iq.fu_full::SimdAddAcc                  0                       # attempts to use FU when none available
system.cpu0.iq.fu_full::SimdAlu                     0                       # attempts to use FU when none available
system.cpu0.iq.fu_full::SimdCmp                     0                       # attempts to use FU when none available
system.cpu0.iq.fu_full::SimdCvt                     0                       # attempts to use FU when none available
system.cpu0.iq.fu_full::SimdMisc                    0                       # attempts to use FU when none available
system.cpu0.iq.fu_full::SimdMult                    0                       # attempts to use FU when none available
system.cpu0.iq.fu_full::SimdMultAcc                 0                       # attempts to use FU when none available
system.cpu0.iq.fu_full::SimdShift                   0                       # attempts to use FU when none available
system.cpu0.iq.fu_full::SimdShiftAcc                0                       # attempts to use FU when none available
system.cpu0.iq.fu_full::SimdSqrt                    0                       # attempts to use FU when none available
system.cpu0.iq.fu_full::SimdFloatAdd                0                       # attempts to use FU when none available
system.cpu0.iq.fu_full::SimdFloatAlu                0                       # attempts to use FU when none available
system.cpu0.iq.fu_full::SimdFloatCmp                0                       # attempts to use FU when none available
system.cpu0.iq.fu_full::SimdFloatCvt                0                       # attempts to use FU when none available
system.cpu0.iq.fu_full::SimdFloatDiv                0                       # attempts to use FU when none available
system.cpu0.iq.fu_full::SimdFloatMisc               0                       # attempts to use FU when none available
system.cpu0.iq.fu_full::SimdFloatMult               0                       # attempts to use FU when none available
system.cpu0.iq.fu_full::SimdFloatMultAcc            0                       # attempts to use FU when none available
system.cpu0.iq.fu_full::SimdFloatSqrt               0                       # attempts to use FU when none available
system.cpu0.iq.fu_full::MemRead                     0                       # attempts to use FU when none available
system.cpu0.iq.fu_full::MemWrite                    0                       # attempts to use FU when none available
system.cpu0.iq.fu_full::IprAccess                   0                       # attempts to use FU when none available
system.cpu0.iq.fu_full::InstPrefetch                0                       # attempts to use FU when none available
system.cpu0.iq.FU_type_0::No_OpClass                0      0.00%      0.00% # Type of FU issued
system.cpu0.iq.FU_type_0::IntAlu               369070     55.79%     55.79% # Type of FU issued
system.cpu0.iq.FU_type_0::IntMult              106660     16.12%     71.91% # Type of FU issued
system.cpu0.iq.FU_type_0::IntDiv                    0      0.00%     71.91% # Type of FU issued
system.cpu0.iq.FU_type_0::FloatAdd                  0      0.00%     71.91% # Type of FU issued
system.cpu0.iq.FU_type_0::FloatCmp                  0      0.00%     71.91% # Type of FU issued
system.cpu0.iq.FU_type_0::FloatCvt                  0      0.00%     71.91% # Type of FU issued
system.cpu0.iq.FU_type_0::FloatMult                 0      0.00%     71.91% # Type of FU issued
system.cpu0.iq.FU_type_0::FloatDiv                  0      0.00%     71.91% # Type of FU issued
system.cpu0.iq.FU_type_0::FloatSqrt                 0      0.00%     71.91% # Type of FU issued
system.cpu0.iq.FU_type_0::SimdAdd                   0      0.00%     71.91% # Type of FU issued
system.cpu0.iq.FU_type_0::SimdAddAcc                0      0.00%     71.91% # Type of FU issued
system.cpu0.iq.FU_type_0::SimdAlu                   0      0.00%     71.91% # Type of FU issued
system.cpu0.iq.FU_type_0::SimdCmp                   0      0.00%     71.91% # Type of FU issued
system.cpu0.iq.FU_type_0::SimdCvt                   0      0.00%     71.91% # Type of FU issued
system.cpu0.iq.FU_type_0::SimdMisc                  0      0.00%     71.91% # Type of FU issued
system.cpu0.iq.FU_type_0::SimdMult                  0      0.00%     71.91% # Type of FU issued
system.cpu0.iq.FU_type_0::SimdMultAcc               0      0.00%     71.91% # Type of FU issued
system.cpu0.iq.FU_type_0::SimdShift                 0      0.00%     71.91% # Type of FU issued
system.cpu0.iq.FU_type_0::SimdShiftAcc              0      0.00%     71.91% # Type of FU issued
system.cpu0.iq.FU_type_0::SimdSqrt                  0      0.00%     71.91% # Type of FU issued
system.cpu0.iq.FU_type_0::SimdFloatAdd              0      0.00%     71.91% # Type of FU issued
system.cpu0.iq.FU_type_0::SimdFloatAlu              0      0.00%     71.91% # Type of FU issued
system.cpu0.iq.FU_type_0::SimdFloatCmp              0      0.00%     71.91% # Type of FU issued
system.cpu0.iq.FU_type_0::SimdFloatCvt              0      0.00%     71.91% # Type of FU issued
system.cpu0.iq.FU_type_0::SimdFloatDiv              0      0.00%     71.91% # Type of FU issued
system.cpu0.iq.FU_type_0::SimdFloatMisc             3      0.00%     71.91% # Type of FU issued
system.cpu0.iq.FU_type_0::SimdFloatMult             0      0.00%     71.91% # Type of FU issued
system.cpu0.iq.FU_type_0::SimdFloatMultAcc            0      0.00%     71.91% # Type of FU issued
system.cpu0.iq.FU_type_0::SimdFloatSqrt             0      0.00%     71.91% # Type of FU issued
system.cpu0.iq.FU_type_0::MemRead              138918     21.00%     92.91% # Type of FU issued
system.cpu0.iq.FU_type_0::MemWrite              46876      7.09%    100.00% # Type of FU issued
system.cpu0.iq.FU_type_0::IprAccess                 0      0.00%    100.00% # Type of FU issued
system.cpu0.iq.FU_type_0::InstPrefetch              0      0.00%    100.00% # Type of FU issued
system.cpu0.iq.FU_type_0::total                661527                       # Type of FU issued
system.cpu0.iq.rate                          1.304517                       # Inst issue rate
system.cpu0.iq.fu_busy_cnt                          0                       # FU busy when requested
system.cpu0.iq.fu_busy_rate                         0                       # FU busy rate (busy events/executed inst)
system.cpu0.iq.int_inst_queue_reads           1792207                       # Number of integer instruction queue reads
system.cpu0.iq.int_inst_queue_writes           758010                       # Number of integer instruction queue writes
system.cpu0.iq.int_inst_queue_wakeup_accesses       659334                       # Number of integer instruction queue wakeup accesses
system.cpu0.iq.fp_inst_queue_reads                 56                       # Number of floating instruction queue reads
system.cpu0.iq.fp_inst_queue_writes                28                       # Number of floating instruction queue writes
system.cpu0.iq.fp_inst_queue_wakeup_accesses           28                       # Number of floating instruction queue wakeup accesses
system.cpu0.iq.int_alu_accesses                661499                       # Number of integer alu accesses
system.cpu0.iq.fp_alu_accesses                     28                       # Number of floating point alu accesses
system.cpu0.iew.lsq.thread0.forwLoads              82                       # Number of loads that had data forwarded from stores
system.cpu0.iew.lsq.thread0.invAddrLoads            0                       # Number of loads ignored due to an invalid address
system.cpu0.iew.lsq.thread0.squashedLoads        11056                       # Number of loads squashed
system.cpu0.iew.lsq.thread0.ignoredResponses            3                       # Number of memory responses ignored because the instruction is squashed
system.cpu0.iew.lsq.thread0.memOrderViolation           38                       # Number of memory ordering violations
system.cpu0.iew.lsq.thread0.squashedStores         3172                       # Number of stores squashed
system.cpu0.iew.lsq.thread0.invAddrSwpfs            0                       # Number of software prefetches ignored due to an invalid address
system.cpu0.iew.lsq.thread0.blockedLoads            0                       # Number of blocked loads due to partial load-store forwarding
system.cpu0.iew.lsq.thread0.rescheduledLoads           38                       # Number of loads that were rescheduled
system.cpu0.iew.lsq.thread0.cacheBlocked           64                       # Number of times an access to memory failed due to the cache being blocked
system.cpu0.iew.iewIdleCycles                       0                       # Number of cycles IEW is idle
system.cpu0.iew.iewSquashCycles                  1320                       # Number of cycles IEW is squashing
system.cpu0.iew.iewBlockCycles                   6615                       # Number of cycles IEW is blocking
system.cpu0.iew.iewUnblockCycles                  474                       # Number of cycles IEW is unblocking
system.cpu0.iew.iewDispatchedInsts             706395                       # Number of instructions dispatched to IQ
system.cpu0.iew.iewDispSquashedInsts               98                       # Number of squashed instructions skipped by dispatch
system.cpu0.iew.iewDispLoadInsts               147515                       # Number of dispatched load instructions
system.cpu0.iew.iewDispStoreInsts               49684                       # Number of dispatched store instructions
system.cpu0.iew.iewDispNonSpecInsts               134                       # Number of dispatched non-speculative instructions
system.cpu0.iew.iewIQFullEvents                    20                       # Number of times the IQ has become full, causing a stall
system.cpu0.iew.iewLSQFullEvents                  450                       # Number of times the LSQ has become full, causing a stall
system.cpu0.iew.memOrderViolationEvents            38                       # Number of memory order violations
system.cpu0.iew.predictedTakenIncorrect           763                       # Number of branches that were predicted taken incorrectly
system.cpu0.iew.predictedNotTakenIncorrect          535                       # Number of branches that were predicted not taken incorrectly
system.cpu0.iew.branchMispredicts                1298                       # Number of branch mispredicts detected at execute
system.cpu0.iew.iewExecutedInsts               660553                       # Number of executed instructions
system.cpu0.iew.iewExecLoadInsts               138218                       # Number of load instructions executed
system.cpu0.iew.iewExecSquashedInsts              974                       # Number of squashed instructions skipped in execute
system.cpu0.iew.exec_swp                            0                       # number of swp insts executed
system.cpu0.iew.exec_nop                            7                       # number of nop insts executed
system.cpu0.iew.exec_refs                      184971                       # number of memory reference insts executed
system.cpu0.iew.exec_branches                   48855                       # Number of branches executed
system.cpu0.iew.exec_stores                     46753                       # Number of stores executed
system.cpu0.iew.exec_rate                    1.302596                       # Inst execution rate
system.cpu0.iew.wb_sent                        659535                       # cumulative count of insts sent to commit
system.cpu0.iew.wb_count                       659362                       # cumulative count of insts written-back
system.cpu0.iew.wb_producers                   556985                       # num instructions producing a value
system.cpu0.iew.wb_consumers                  1051831                       # num instructions consuming a value
system.cpu0.iew.wb_penalized                        0                       # number of instrctions required to write to 'other' IQ
system.cpu0.iew.wb_rate                      1.300247                       # insts written-back per cycle
system.cpu0.iew.wb_fanout                    0.529538                       # average fanout of values written-back
system.cpu0.iew.wb_penalized_rate                   0                       # fraction of instructions written-back that wrote to 'other' IQ
system.cpu0.commit.commitSquashedInsts          51622                       # The number of squashed insts skipped by commit
system.cpu0.commit.commitNonSpecStalls            197                       # The number of times commit has been forced to stall to communicate backwards
system.cpu0.commit.branchMispredicts             1262                       # The number of times a branch was mispredicted
system.cpu0.commit.committed_per_cycle::samples       458414                       # Number of insts commited each cycle
system.cpu0.commit.committed_per_cycle::mean     1.428351                       # Number of insts commited each cycle
system.cpu0.commit.committed_per_cycle::stdev     2.219496                       # Number of insts commited each cycle
system.cpu0.commit.committed_per_cycle::underflows            0      0.00%      0.00% # Number of insts commited each cycle
system.cpu0.commit.committed_per_cycle::0       223786     48.82%     48.82% # Number of insts commited each cycle
system.cpu0.commit.committed_per_cycle::1        83839     18.29%     67.11% # Number of insts commited each cycle
system.cpu0.commit.committed_per_cycle::2        87764     19.15%     86.25% # Number of insts commited each cycle
system.cpu0.commit.committed_per_cycle::3        15438      3.37%     89.62% # Number of insts commited each cycle
system.cpu0.commit.committed_per_cycle::4         1475      0.32%     89.94% # Number of insts commited each cycle
system.cpu0.commit.committed_per_cycle::5         2075      0.45%     90.39% # Number of insts commited each cycle
system.cpu0.commit.committed_per_cycle::6         8963      1.96%     92.35% # Number of insts commited each cycle
system.cpu0.commit.committed_per_cycle::7         1550      0.34%     92.69% # Number of insts commited each cycle
system.cpu0.commit.committed_per_cycle::8        33524      7.31%    100.00% # Number of insts commited each cycle
system.cpu0.commit.committed_per_cycle::overflows            0      0.00%    100.00% # Number of insts commited each cycle
system.cpu0.commit.committed_per_cycle::min_value            0                       # Number of insts commited each cycle
system.cpu0.commit.committed_per_cycle::max_value            8                       # Number of insts commited each cycle
system.cpu0.commit.committed_per_cycle::total       458414                       # Number of insts commited each cycle
system.cpu0.commit.committedInsts              625705                       # Number of instructions committed
system.cpu0.commit.committedOps                654776                       # Number of ops (including micro ops) committed
system.cpu0.commit.swp_count                        0                       # Number of s/w prefetches committed
system.cpu0.commit.refs                        182971                       # Number of memory references committed
system.cpu0.commit.loads                       136459                       # Number of loads committed
system.cpu0.commit.membars                        113                       # Number of memory barriers committed
system.cpu0.commit.branches                     48199                       # Number of branches committed
system.cpu0.commit.fp_insts                        28                       # Number of committed floating point instructions.
[...]
system.l2.ReadExReq_avg_mshr_miss_latency::cpu7.data 74062.500000                       # average ReadExReq mshr miss latency
system.l2.ReadExReq_avg_mshr_miss_latency::total 61993.739080                       # average ReadExReq mshr miss latency
system.l2.demand_avg_mshr_miss_latency::cpu0.inst 64507.455268                       # average overall mshr miss latency
system.l2.demand_avg_mshr_miss_latency::cpu0.data 61402.754591                       # average overall mshr miss latency
system.l2.demand_avg_mshr_miss_latency::cpu1.inst        74050                       # average overall mshr miss latency
system.l2.demand_avg_mshr_miss_latency::cpu1.data 138812.500000                       # average overall mshr miss latency
system.l2.demand_avg_mshr_miss_latency::cpu2.inst        90250                       # average overall mshr miss latency
system.l2.demand_avg_mshr_miss_latency::cpu2.data        94800                       # average overall mshr miss latency
system.l2.demand_avg_mshr_miss_latency::cpu3.inst        83900                       # average overall mshr miss latency
system.l2.demand_avg_mshr_miss_latency::cpu3.data 97687.500000                       # average overall mshr miss latency
system.l2.demand_avg_mshr_miss_latency::cpu4.inst        65375                       # average overall mshr miss latency
system.l2.demand_avg_mshr_miss_latency::cpu4.data 139916.666667                       # average overall mshr miss latency
system.l2.demand_avg_mshr_miss_latency::cpu5.inst 70166.666667                       # average overall mshr miss latency
system.l2.demand_avg_mshr_miss_latency::cpu5.data       133125                       # average overall mshr miss latency
system.l2.demand_avg_mshr_miss_latency::cpu6.data 132687.500000                       # average overall mshr miss latency
system.l2.demand_avg_mshr_miss_latency::cpu7.inst        56375                       # average overall mshr miss latency
system.l2.demand_avg_mshr_miss_latency::cpu7.data 74062.500000                       # average overall mshr miss latency
system.l2.demand_avg_mshr_miss_latency::total 63019.433883                       # average overall mshr miss latency
system.l2.overall_avg_mshr_miss_latency::cpu0.inst 64507.455268                       # average overall mshr miss latency
system.l2.overall_avg_mshr_miss_latency::cpu0.data 61402.754591                       # average overall mshr miss latency
system.l2.overall_avg_mshr_miss_latency::cpu1.inst        74050                       # average overall mshr miss latency
system.l2.overall_avg_mshr_miss_latency::cpu1.data 138812.500000                       # average overall mshr miss latency
system.l2.overall_avg_mshr_miss_latency::cpu2.inst        90250                       # average overall mshr miss latency
system.l2.overall_avg_mshr_miss_latency::cpu2.data        94800                       # average overall mshr miss latency
system.l2.overall_avg_mshr_miss_latency::cpu3.inst        83900                       # average overall mshr miss latency
system.l2.overall_avg_mshr_miss_latency::cpu3.data 97687.500000                       # average overall mshr miss latency
system.l2.overall_avg_mshr_miss_latency::cpu4.inst        65375                       # average overall mshr miss latency
system.l2.overall_avg_mshr_miss_latency::cpu4.data 139916.666667                       # average overall mshr miss latency
system.l2.overall_avg_mshr_miss_latency::cpu5.inst 70166.666667                       # average overall mshr miss latency
system.l2.overall_avg_mshr_miss_latency::cpu5.data       133125                       # average overall mshr miss latency
system.l2.overall_avg_mshr_miss_latency::cpu6.data 132687.500000                       # average overall mshr miss latency
system.l2.overall_avg_mshr_miss_latency::cpu7.inst        56375                       # average overall mshr miss latency
system.l2.overall_avg_mshr_miss_latency::cpu7.data 74062.500000                       # average overall mshr miss latency
system.l2.overall_avg_mshr_miss_latency::total 63019.433883                       # average overall mshr miss latency
system.l2.no_allocate_misses                        0                       # Number of misses that were no-allocate
system.membus.trans_dist::ReadReq                 649                       # Transaction distribution
system.membus.trans_dist::ReadResp                648                       # Transaction distribution
system.membus.trans_dist::UpgradeReq               26                       # Transaction distribution
system.membus.trans_dist::SCUpgradeReq             22                       # Transaction distribution
system.membus.trans_dist::UpgradeResp              17                       # Transaction distribution
system.membus.trans_dist::ReadExReq              1717                       # Transaction distribution
system.membus.trans_dist::ReadExResp             1717                       # Transaction distribution
system.membus.pkt_count_system.l2.mem_side::system.mem_ctrls.port         4796                       # Packet count per connected master and slave (bytes)
system.membus.pkt_count::total                   4796                       # Packet count per connected master and slave (bytes)
system.membus.pkt_size_system.l2.mem_side::system.mem_ctrls.port       151360                       # Cumulative packet size per connected master and slave (bytes)
system.membus.pkt_size::total                  151360                       # Cumulative packet size per connected master and slave (bytes)
system.membus.snoops                               31                       # Total snoops (count)
system.membus.snoop_fanout::samples              2414                       # Request fanout histogram
system.membus.snoop_fanout::mean                    0                       # Request fanout histogram
system.membus.snoop_fanout::stdev                   0                       # Request fanout histogram
system.membus.snoop_fanout::underflows              0      0.00%      0.00% # Request fanout histogram
system.membus.snoop_fanout::0                    2414    100.00%    100.00% # Request fanout histogram
system.membus.snoop_fanout::1                       0      0.00%    100.00% # Request fanout histogram
system.membus.snoop_fanout::overflows               0      0.00%    100.00% # Request fanout histogram
system.membus.snoop_fanout::min_value               0                       # Request fanout histogram
system.membus.snoop_fanout::max_value               0                       # Request fanout histogram
system.membus.snoop_fanout::total                2414                       # Request fanout histogram
system.membus.reqLayer0.occupancy             2603500                       # Layer occupancy (ticks)
system.membus.reqLayer0.utilization               1.0                       # Layer utilization (%)
system.membus.respLayer1.occupancy           12505484                       # Layer occupancy (ticks)
system.membus.respLayer1.utilization              4.9                       # Layer utilization (%)
system.tol2bus.trans_dist::ReadReq              12598                       # Transaction distribution
system.tol2bus.trans_dist::ReadResp             12596                       # Transaction distribution
system.tol2bus.trans_dist::Writeback             6676                       # Transaction distribution
system.tol2bus.trans_dist::UpgradeReq              27                       # Transaction distribution
system.tol2bus.trans_dist::SCUpgradeReq            23                       # Transaction distribution
system.tol2bus.trans_dist::UpgradeResp             50                       # Transaction distribution
system.tol2bus.trans_dist::SCUpgradeFailReq            3                       # Transaction distribution
system.tol2bus.trans_dist::UpgradeFailResp            3                       # Transaction distribution
system.tol2bus.trans_dist::ReadExReq             6783                       # Transaction distribution
system.tol2bus.trans_dist::ReadExResp            6783                       # Transaction distribution
system.tol2bus.pkt_count_system.cpu0.icache.mem_side::system.l2.cpu_side         1222                       # Packet count per connected master and slave (bytes)
system.tol2bus.pkt_count_system.cpu0.dcache.mem_side::system.l2.cpu_side        11422                       # Packet count per connected master and slave (bytes)
system.tol2bus.pkt_count_system.cpu1.icache.mem_side::system.l2.cpu_side          104                       # Packet count per connected master and slave (bytes)
system.tol2bus.pkt_count_system.cpu1.dcache.mem_side::system.l2.cpu_side         3202                       # Packet count per connected master and slave (bytes)
system.tol2bus.pkt_count_system.cpu2.icache.mem_side::system.l2.cpu_side          104                       # Packet count per connected master and slave (bytes)
system.tol2bus.pkt_count_system.cpu2.dcache.mem_side::system.l2.cpu_side         3082                       # Packet count per connected master and slave (bytes)
system.tol2bus.pkt_count_system.cpu3.icache.mem_side::system.l2.cpu_side          106                       # Packet count per connected master and slave (bytes)
system.tol2bus.pkt_count_system.cpu3.dcache.mem_side::system.l2.cpu_side         3159                       # Packet count per connected master and slave (bytes)
system.tol2bus.pkt_count_system.cpu4.icache.mem_side::system.l2.cpu_side          108                       # Packet count per connected master and slave (bytes)
system.tol2bus.pkt_count_system.cpu4.dcache.mem_side::system.l2.cpu_side         3185                       # Packet count per connected master and slave (bytes)
system.tol2bus.pkt_count_system.cpu5.icache.mem_side::system.l2.cpu_side          114                       # Packet count per connected master and slave (bytes)
system.tol2bus.pkt_count_system.cpu5.dcache.mem_side::system.l2.cpu_side         3312                       # Packet count per connected master and slave (bytes)
system.tol2bus.pkt_count_system.cpu6.icache.mem_side::system.l2.cpu_side          110                       # Packet count per connected master and slave (bytes)
system.tol2bus.pkt_count_system.cpu6.dcache.mem_side::system.l2.cpu_side         3047                       # Packet count per connected master and slave (bytes)
system.tol2bus.pkt_count_system.cpu7.icache.mem_side::system.l2.cpu_side          102                       # Packet count per connected master and slave (bytes)
system.tol2bus.pkt_count_system.cpu7.dcache.mem_side::system.l2.cpu_side         3105                       # Packet count per connected master and slave (bytes)
system.tol2bus.pkt_count::total                 35484                       # Packet count per connected master and slave (bytes)
system.tol2bus.pkt_size_system.cpu0.icache.mem_side::system.l2.cpu_side        39040                       # Cumulative packet size per connected master and slave (bytes)
system.tol2bus.pkt_size_system.cpu0.dcache.mem_side::system.l2.cpu_side       452992                       # Cumulative packet size per connected master and slave (bytes)
system.tol2bus.pkt_size_system.cpu1.icache.mem_side::system.l2.cpu_side         3328                       # Cumulative packet size per connected master and slave (bytes)
system.tol2bus.pkt_size_system.cpu1.dcache.mem_side::system.l2.cpu_side        73664                       # Cumulative packet size per connected master and slave (bytes)
system.tol2bus.pkt_size_system.cpu2.icache.mem_side::system.l2.cpu_side         3328                       # Cumulative packet size per connected master and slave (bytes)
system.tol2bus.pkt_size_system.cpu2.dcache.mem_side::system.l2.cpu_side        67776                       # Cumulative packet size per connected master and slave (bytes)
system.tol2bus.pkt_size_system.cpu3.icache.mem_side::system.l2.cpu_side         3392                       # Cumulative packet size per connected master and slave (bytes)
system.tol2bus.pkt_size_system.cpu3.dcache.mem_side::system.l2.cpu_side        72960                       # Cumulative packet size per connected master and slave (bytes)
system.tol2bus.pkt_size_system.cpu4.icache.mem_side::system.l2.cpu_side         3456                       # Cumulative packet size per connected master and slave (bytes)
system.tol2bus.pkt_size_system.cpu4.dcache.mem_side::system.l2.cpu_side        74432                       # Cumulative packet size per connected master and slave (bytes)
system.tol2bus.pkt_size_system.cpu5.icache.mem_side::system.l2.cpu_side         3648                       # Cumulative packet size per connected master and slave (bytes)
system.tol2bus.pkt_size_system.cpu5.dcache.mem_side::system.l2.cpu_side        83648                       # Cumulative packet size per connected master and slave (bytes)
system.tol2bus.pkt_size_system.cpu6.icache.mem_side::system.l2.cpu_side         3520                       # Cumulative packet size per connected master and slave (bytes)
system.tol2bus.pkt_size_system.cpu6.dcache.mem_side::system.l2.cpu_side        67648                       # Cumulative packet size per connected master and slave (bytes)
system.tol2bus.pkt_size_system.cpu7.icache.mem_side::system.l2.cpu_side         3264                       # Cumulative packet size per connected master and slave (bytes)
system.tol2bus.pkt_size_system.cpu7.dcache.mem_side::system.l2.cpu_side        69888                       # Cumulative packet size per connected master and slave (bytes)
system.tol2bus.pkt_size::total                1025984                       # Cumulative packet size per connected master and slave (bytes)
system.tol2bus.snoops                           10058                       # Total snoops (count)
system.tol2bus.snoop_fanout::samples            26111                       # Request fanout histogram
system.tol2bus.snoop_fanout::mean                  15                       # Request fanout histogram
system.tol2bus.snoop_fanout::stdev                  0                       # Request fanout histogram
system.tol2bus.snoop_fanout::underflows             0      0.00%      0.00% # Request fanout histogram
system.tol2bus.snoop_fanout::0                      0      0.00%      0.00% # Request fanout histogram
system.tol2bus.snoop_fanout::1                      0      0.00%      0.00% # Request fanout histogram
system.tol2bus.snoop_fanout::2                      0      0.00%      0.00% # Request fanout histogram
system.tol2bus.snoop_fanout::3                      0      0.00%      0.00% # Request fanout histogram
system.tol2bus.snoop_fanout::4                      0      0.00%      0.00% # Request fanout histogram
system.tol2bus.snoop_fanout::5                      0      0.00%      0.00% # Request fanout histogram
system.tol2bus.snoop_fanout::6                      0      0.00%      0.00% # Request fanout histogram
system.tol2bus.snoop_fanout::7                      0      0.00%      0.00% # Request fanout histogram
system.tol2bus.snoop_fanout::8                      0      0.00%      0.00% # Request fanout histogram
system.tol2bus.snoop_fanout::9                      0      0.00%      0.00% # Request fanout histogram
system.tol2bus.snoop_fanout::10                     0      0.00%      0.00% # Request fanout histogram
system.tol2bus.snoop_fanout::11                     0      0.00%      0.00% # Request fanout histogram
system.tol2bus.snoop_fanout::12                     0      0.00%      0.00% # Request fanout histogram
system.tol2bus.snoop_fanout::13                     0      0.00%      0.00% # Request fanout histogram
system.tol2bus.snoop_fanout::14                     0      0.00%      0.00% # Request fanout histogram
system.tol2bus.snoop_fanout::15                 26111    100.00%    100.00% # Request fanout histogram
system.tol2bus.snoop_fanout::16                     0      0.00%    100.00% # Request fanout histogram
system.tol2bus.snoop_fanout::overflows              0      0.00%    100.00% # Request fanout histogram
system.tol2bus.snoop_fanout::min_value             15                       # Request fanout histogram
system.tol2bus.snoop_fanout::max_value             15                       # Request fanout histogram
system.tol2bus.snoop_fanout::total              26111                       # Request fanout histogram
system.tol2bus.reqLayer0.occupancy           19731999                       # Layer occupancy (ticks)
system.tol2bus.reqLayer0.utilization              7.8                       # Layer utilization (%)
system.tol2bus.respLayer0.occupancy           1013971                       # Layer occupancy (ticks)
system.tol2bus.respLayer0.utilization             0.4                       # Layer utilization (%)
system.tol2bus.respLayer1.occupancy           6861981                       # Layer occupancy (ticks)
system.tol2bus.respLayer1.utilization             2.7                       # Layer utilization (%)
system.tol2bus.respLayer4.occupancy             87705                       # Layer occupancy (ticks)
system.tol2bus.respLayer4.utilization             0.0                       # Layer utilization (%)
system.tol2bus.respLayer5.occupancy           3078230                       # Layer occupancy (ticks)
system.tol2bus.respLayer5.utilization             1.2                       # Layer utilization (%)
system.tol2bus.respLayer8.occupancy             83957                       # Layer occupancy (ticks)
system.tol2bus.respLayer8.utilization             0.0                       # Layer utilization (%)
system.tol2bus.respLayer9.occupancy           3037471                       # Layer occupancy (ticks)
system.tol2bus.respLayer9.utilization             1.2                       # Layer utilization (%)
system.tol2bus.respLayer12.occupancy            85459                       # Layer occupancy (ticks)
system.tol2bus.respLayer12.utilization            0.0                       # Layer utilization (%)
system.tol2bus.respLayer13.occupancy          3031718                       # Layer occupancy (ticks)
system.tol2bus.respLayer13.utilization            1.2                       # Layer utilization (%)
system.tol2bus.respLayer16.occupancy            85221                       # Layer occupancy (ticks)
system.tol2bus.respLayer16.utilization            0.0                       # Layer utilization (%)
system.tol2bus.respLayer17.occupancy          3032483                       # Layer occupancy (ticks)
system.tol2bus.respLayer17.utilization            1.2                       # Layer utilization (%)
system.tol2bus.respLayer20.occupancy            89951                       # Layer occupancy (ticks)
system.tol2bus.respLayer20.utilization            0.0                       # Layer utilization (%)
system.tol2bus.respLayer21.occupancy          3007486                       # Layer occupancy (ticks)
system.tol2bus.respLayer21.utilization            1.2                       # Layer utilization (%)
system.tol2bus.respLayer24.occupancy            86456                       # Layer occupancy (ticks)
system.tol2bus.respLayer24.utilization            0.0                       # Layer utilization (%)
system.tol2bus.respLayer25.occupancy          2986237                       # Layer occupancy (ticks)
system.tol2bus.respLayer25.utilization            1.2                       # Layer utilization (%)
system.tol2bus.respLayer28.occupancy            79971                       # Layer occupancy (ticks)
system.tol2bus.respLayer28.utilization            0.0                       # Layer utilization (%)
system.tol2bus.respLayer29.occupancy          3017241                       # Layer occupancy (ticks)
system.tol2bus.respLayer29.utilization            1.2                       # Layer utilization (%)

---------- End Simulation Statistics   ----------
