
---------- Begin Simulation Statistics ----------
sim_seconds                                  0.000255                       # Number of seconds simulated
sim_ticks                                   255118500                       # Number of ticks simulated
final_tick                                  255118500                       # Number of ticks from beginning of simulation (restored from checkpoints and never reset)
sim_freq                                 1000000000000                       # Frequency of simulated ticks
host_inst_rate                                 278600                       # Simulator instruction rate (inst/s)
host_op_rate                                   280800                       # Simulator op (including micro ops) rate (op/s)
host_tick_rate                               16810975                       # Simulator tick rate (ticks/s)
host_mem_usage                                 665892                       # Number of bytes of host memory used
host_seconds                                    15.18                       # Real time elapsed on the host
sim_insts                                     4227943                       # Number of instructions simulated
sim_ops                                       4261337                       # Number of ops (including micro ops) simulated
system.voltage_domain.voltage                       1                       # Voltage in Volts
system.clk_domain.clock                          1000                       # Clock period in ticks
system.mem_ctrls.bytes_read::cpu0.inst          35712                       # Number of bytes read from this memory
system.mem_ctrls.bytes_read::cpu0.data         115264                       # Number of bytes read from this memory
system.mem_ctrls.bytes_read::cpu1.inst           1024                       # Number of bytes read from this memory
system.mem_ctrls.bytes_read::cpu1.data            256                       # Number of bytes read from this memory
system.mem_ctrls.bytes_read::cpu2.inst            128                       # Number of bytes read from this memory
system.mem_ctrls.bytes_read::cpu2.data            256                       # Number of bytes read from this memory
system.mem_ctrls.bytes_read::cpu3.inst            256                       # Number of bytes read from this memory
system.mem_ctrls.bytes_read::cpu3.data            320                       # Number of bytes read from this memory
system.mem_ctrls.bytes_read::total             153216                       # Number of bytes read from this memory
system.mem_ctrls.bytes_inst_read::cpu0.inst        35712                       # Number of instructions bytes read from this memory
system.mem_ctrls.bytes_inst_read::cpu1.inst         1024                       # Number of instructions bytes read from this memory
system.mem_ctrls.bytes_inst_read::cpu2.inst          128                       # Number of instructions bytes read from this memory
system.mem_ctrls.bytes_inst_read::cpu3.inst          256                       # Number of instructions bytes read from this memory
system.mem_ctrls.bytes_inst_read::total         37120                       # Number of instructions bytes read from this memory
system.mem_ctrls.num_reads::cpu0.inst             558                       # Number of read requests responded to by this memory
system.mem_ctrls.num_reads::cpu0.data            1801                       # Number of read requests responded to by this memory
system.mem_ctrls.num_reads::cpu1.inst              16                       # Number of read requests responded to by this memory
system.mem_ctrls.num_reads::cpu1.data               4                       # Number of read requests responded to by this memory
system.mem_ctrls.num_reads::cpu2.inst               2                       # Number of read requests responded to by this memory
system.mem_ctrls.num_reads::cpu2.data               4                       # Number of read requests responded to by this memory
system.mem_ctrls.num_reads::cpu3.inst               4                       # Number of read requests responded to by this memory
system.mem_ctrls.num_reads::cpu3.data               5                       # Number of read requests responded to by this memory
system.mem_ctrls.num_reads::total                2394                       # Number of read requests responded to by this memory
system.mem_ctrls.bw_read::cpu0.inst         139982008                       # Total read bandwidth from this memory (bytes/s)
system.mem_ctrls.bw_read::cpu0.data         451805729                       # Total read bandwidth from this memory (bytes/s)
system.mem_ctrls.bw_read::cpu1.inst           4013821                       # Total read bandwidth from this memory (bytes/s)
system.mem_ctrls.bw_read::cpu1.data           1003455                       # Total read bandwidth from this memory (bytes/s)
system.mem_ctrls.bw_read::cpu2.inst            501728                       # Total read bandwidth from this memory (bytes/s)
system.mem_ctrls.bw_read::cpu2.data           1003455                       # Total read bandwidth from this memory (bytes/s)
system.mem_ctrls.bw_read::cpu3.inst           1003455                       # Total read bandwidth from this memory (bytes/s)
system.mem_ctrls.bw_read::cpu3.data           1254319                       # Total read bandwidth from this memory (bytes/s)
system.mem_ctrls.bw_read::total             600567971                       # Total read bandwidth from this memory (bytes/s)
system.mem_ctrls.bw_inst_read::cpu0.inst    139982008                       # Instruction read bandwidth from this memory (bytes/s)
system.mem_ctrls.bw_inst_read::cpu1.inst      4013821                       # Instruction read bandwidth from this memory (bytes/s)
system.mem_ctrls.bw_inst_read::cpu2.inst       501728                       # Instruction read bandwidth from this memory (bytes/s)
system.mem_ctrls.bw_inst_read::cpu3.inst      1003455                       # Instruction read bandwidth from this memory (bytes/s)
system.mem_ctrls.bw_inst_read::total        145501012                       # Instruction read bandwidth from this memory (bytes/s)
system.mem_ctrls.bw_total::cpu0.inst        139982008                       # Total bandwidth to/from this memory (bytes/s)
system.mem_ctrls.bw_total::cpu0.data        451805729                       # Total bandwidth to/from this memory (bytes/s)
system.mem_ctrls.bw_total::cpu1.inst          4013821                       # Total bandwidth to/from this memory (bytes/s)
system.mem_ctrls.bw_total::cpu1.data          1003455                       # Total bandwidth to/from this memory (bytes/s)
system.mem_ctrls.bw_total::cpu2.inst           501728                       # Total bandwidth to/from this memory (bytes/s)
system.mem_ctrls.bw_total::cpu2.data          1003455                       # Total bandwidth to/from this memory (bytes/s)
system.mem_ctrls.bw_total::cpu3.inst          1003455                       # Total bandwidth to/from this memory (bytes/s)
system.mem_ctrls.bw_total::cpu3.data          1254319                       # Total bandwidth to/from this memory (bytes/s)
system.mem_ctrls.bw_total::total            600567971                       # Total bandwidth to/from this memory (bytes/s)
system.mem_ctrls.readReqs                        2394                       # Number of read requests accepted
system.mem_ctrls.writeReqs                          0                       # Number of write requests accepted
system.mem_ctrls.readBursts                      2394                       # Number of DRAM read bursts, including those serviced by the write queue
system.mem_ctrls.writeBursts                        0                       # Number of DRAM write bursts, including those merged in the write queue
system.mem_ctrls.bytesReadDRAM                 153216                       # Total number of bytes read from DRAM
system.mem_ctrls.bytesReadWrQ                       0                       # Total number of bytes read from write queue
system.mem_ctrls.bytesWritten                       0                       # Total number of bytes written to DRAM
system.mem_ctrls.bytesReadSys                  153216                       # Total read bytes from the system interface side
system.mem_ctrls.bytesWrittenSys                    0                       # Total written bytes from the system interface side
system.mem_ctrls.servicedByWrQ                      0                       # Number of DRAM read bursts serviced by the write queue
system.mem_ctrls.mergedWrBursts                     0                       # Number of DRAM write bursts merged with an existing one
system.mem_ctrls.neitherReadNorWriteReqs           21                       # Number of requests that are neither read nor write
system.mem_ctrls.perBankRdBursts::0               131                       # Per bank write bursts
system.mem_ctrls.perBankRdBursts::1               125                       # Per bank write bursts
system.mem_ctrls.perBankRdBursts::2               144                       # Per bank write bursts
system.mem_ctrls.perBankRdBursts::3               204                       # Per bank write bursts
system.mem_ctrls.perBankRdBursts::4               156                       # Per bank write bursts
system.mem_ctrls.perBankRdBursts::5               150                       # Per bank write bursts
system.mem_ctrls.perBankRdBursts::6               223                       # Per bank write bursts
system.mem_ctrls.perBankRdBursts::7               162                       # Per bank write bursts
system.mem_ctrls.perBankRdBursts::8               142                       # Per bank write bursts
system.mem_ctrls.perBankRdBursts::9               138                       # Per bank write bursts
system.mem_ctrls.perBankRdBursts::10              128                       # Per bank write bursts
system.mem_ctrls.perBankRdBursts::11              142                       # Per bank write bursts
system.mem_ctrls.perBankRdBursts::12              134                       # Per bank write bursts
system.mem_ctrls.perBankRdBursts::13              161                       # Per bank write bursts
system.mem_ctrls.perBankRdBursts::14              166                       # Per bank write bursts
system.mem_ctrls.perBankRdBursts::15               88                       # Per bank write bursts
system.mem_ctrls.perBankWrBursts::0                 0                       # Per bank write bursts
system.mem_ctrls.perBankWrBursts::1                 0                       # Per bank write bursts
system.mem_ctrls.perBankWrBursts::2                 0                       # Per bank write bursts
system.mem_ctrls.perBankWrBursts::3                 0                       # Per bank write bursts
system.mem_ctrls.perBankWrBursts::4                 0                       # Per bank write bursts
system.mem_ctrls.perBankWrBursts::5                 0                       # Per bank write bursts
system.mem_ctrls.perBankWrBursts::6                 0                       # Per bank write bursts
system.mem_ctrls.perBankWrBursts::7                 0                       # Per bank write bursts
system.mem_ctrls.perBankWrBursts::8                 0                       # Per bank write bursts
system.mem_ctrls.perBankWrBursts::9                 0                       # Per bank write bursts
system.mem_ctrls.perBankWrBursts::10                0                       # Per bank write bursts
system.mem_ctrls.perBankWrBursts::11                0                       # Per bank write bursts
system.mem_ctrls.perBankWrBursts::12                0                       # Per bank write bursts
system.mem_ctrls.perBankWrBursts::13                0                       # Per bank write bursts
system.mem_ctrls.perBankWrBursts::14                0                       # Per bank write bursts
system.mem_ctrls.perBankWrBursts::15                0                       # Per bank write bursts
system.mem_ctrls.numRdRetry                         0                       # Number of times read queue was full causing retry
system.mem_ctrls.numWrRetry                         0                       # Number of times write queue was full causing retry
system.mem_ctrls.totGap                     255079000                       # Total gap between requests
system.mem_ctrls.readPktSize::0                     0                       # Read request sizes (log2)
system.mem_ctrls.readPktSize::1                     0                       # Read request sizes (log2)
system.mem_ctrls.readPktSize::2                     0                       # Read request sizes (log2)
system.mem_ctrls.readPktSize::3                     0                       # Read request sizes (log2)
system.mem_ctrls.readPktSize::4                     0                       # Read request sizes (log2)
system.mem_ctrls.readPktSize::5                     0                       # Read request sizes (log2)
system.mem_ctrls.readPktSize::6                  2394                       # Read request sizes (log2)
system.mem_ctrls.writePktSize::0                    0                       # Write request sizes (log2)
system.mem_ctrls.writePktSize::1                    0                       # Write request sizes (log2)
system.mem_ctrls.writePktSize::2                    0                       # Write request sizes (log2)
system.mem_ctrls.writePktSize::3                    0                       # Write request sizes (log2)
system.mem_ctrls.writePktSize::4                    0                       # Write request sizes (log2)
system.mem_ctrls.writePktSize::5                    0                       # Write request sizes (log2)
system.mem_ctrls.writePktSize::6                    0                       # Write request sizes (log2)
system.mem_ctrls.rdQLenPdf::0                    1371                       # What read queue length does an incoming req see
system.mem_ctrls.rdQLenPdf::1                     902                       # What read queue length does an incoming req see
system.mem_ctrls.rdQLenPdf::2                      88                       # What read queue length does an incoming req see
system.mem_ctrls.rdQLenPdf::3                      24                       # What read queue length does an incoming req see
system.mem_ctrls.rdQLenPdf::4                       6                       # What read queue length does an incoming req see
system.mem_ctrls.rdQLenPdf::5                       3                       # What read queue length does an incoming req see
system.mem_ctrls.rdQLenPdf::6                       0                       # What read queue length does an incoming req see
system.mem_ctrls.rdQLenPdf::7                       0                       # What read queue length does an incoming req see
system.mem_ctrls.rdQLenPdf::8                       0                       # What read queue length does an incoming req see
system.mem_ctrls.rdQLenPdf::9                       0                       # What read queue length does an incoming req see
system.mem_ctrls.rdQLenPdf::10                      0                       # What read queue length does an incoming req see
system.mem_ctrls.rdQLenPdf::11                      0                       # What read queue length does an incoming req see
system.mem_ctrls.rdQLenPdf::12                      0                       # What read queue length does an incoming req see
system.mem_ctrls.rdQLenPdf::13                      0                       # What read queue length does an incoming req see
system.mem_ctrls.rdQLenPdf::14                      0                       # What read queue length does an incoming req see
system.mem_ctrls.rdQLenPdf::15                      0                       # What read queue length does an incoming req see
system.mem_ctrls.rdQLenPdf::16                      0                       # What read queue length does an incoming req see
system.mem_ctrls.rdQLenPdf::17                      0                       # What read queue length does an incoming req see
system.mem_ctrls.rdQLenPdf::18                      0                       # What read queue length does an incoming req see
system.mem_ctrls.rdQLenPdf::19                      0                       # What read queue length does an incoming req see
system.mem_ctrls.rdQLenPdf::20                      0                       # What read queue length does an incoming req see
system.mem_ctrls.rdQLenPdf::21                      0                       # What read queue length does an incoming req see
system.mem_ctrls.rdQLenPdf::22                      0                       # What read queue length does an incoming req see
system.mem_ctrls.rdQLenPdf::23                      0                       # What read queue length does an incoming req see
system.mem_ctrls.rdQLenPdf::24                      0                       # What read queue length does an incoming req see
system.mem_ctrls.rdQLenPdf::25                      0                       # What read queue length does an incoming req see
system.mem_ctrls.rdQLenPdf::26                      0                       # What read queue length does an incoming req see
system.mem_ctrls.rdQLenPdf::27                      0                       # What read queue length does an incoming req see
system.mem_ctrls.rdQLenPdf::28                      0                       # What read queue length does an incoming req see
system.mem_ctrls.rdQLenPdf::29                      0                       # What read queue length does an incoming req see
system.mem_ctrls.rdQLenPdf::30                      0                       # What read queue length does an incoming req see
system.mem_ctrls.rdQLenPdf::31                      0                       # What read queue length does an incoming req see
system.mem_ctrls.wrQLenPdf::0                       0                       # What write queue length does an incoming req see
system.mem_ctrls.wrQLenPdf::1                       0                       # What write queue length does an incoming req see
system.mem_ctrls.wrQLenPdf::2                       0                       # What write queue length does an incoming req see
system.mem_ctrls.wrQLenPdf::3                       0                       # What write queue length does an incoming req see
system.mem_ctrls.wrQLenPdf::4                       0                       # What write queue length does an incoming req see
system.mem_ctrls.wrQLenPdf::5                       0                       # What write queue length does an incoming req see
system.mem_ctrls.wrQLenPdf::6                       0                       # What write queue length does an incoming req see
system.mem_ctrls.wrQLenPdf::7                       0                       # What write queue length does an incoming req see
system.mem_ctrls.wrQLenPdf::8                       0                       # What write queue length does an incoming req see
system.mem_ctrls.wrQLenPdf::9                       0                       # What write queue length does an incoming req see
system.mem_ctrls.wrQLenPdf::10                      0                       # What write queue length does an incoming req see
system.mem_ctrls.wrQLenPdf::11                      0                       # What write queue length does an incoming req see
system.mem_ctrls.wrQLenPdf::12                      0                       # What write queue length does an incoming req see
system.mem_ctrls.wrQLenPdf::13                      0                       # What write queue length does an incoming req see
system.mem_ctrls.wrQLenPdf::14                      0                       # What write queue length does an incoming req see
system.mem_ctrls.wrQLenPdf::15                      0                       # What write queue length does an incoming req see
system.mem_ctrls.wrQLenPdf::16                      0                       # What write queue length does an incoming req see
system.mem_ctrls.wrQLenPdf::17                      0                       # What write queue length does an incoming req see
system.mem_ctrls.wrQLenPdf::18                      0                       # What write queue length does an incoming req see
system.mem_ctrls.wrQLenPdf::19                      0                       # What write queue length does an incoming req see
system.mem_ctrls.wrQLenPdf::20                      0                       # What write queue length does an incoming req see
system.mem_ctrls.wrQLenPdf::21                      0                       # What write queue length does an incoming req see
system.mem_ctrls.wrQLenPdf::22                      0                       # What write queue length does an incoming req see
system.mem_ctrls.wrQLenPdf::23                      0                       # What write queue length does an incoming req see
system.mem_ctrls.wrQLenPdf::24                      0                       # What write queue length does an incoming req see
system.mem_ctrls.wrQLenPdf::25                      0                       # What write queue length does an incoming req see
system.mem_ctrls.wrQLenPdf::26                      0                       # What write queue length does an incoming req see
system.mem_ctrls.wrQLenPdf::27                      0                       # What write queue length does an incoming req see
system.mem_ctrls.wrQLenPdf::28                      0                       # What write queue length does an incoming req see
system.mem_ctrls.wrQLenPdf::29                      0                       # What write queue length does an incoming req see
system.mem_ctrls.wrQLenPdf::30                      0                       # What write queue length does an incoming req see
system.mem_ctrls.wrQLenPdf::31                      0                       # What write queue length does an incoming req see
system.mem_ctrls.wrQLenPdf::32                      0                       # What write queue length does an incoming req see
system.mem_ctrls.wrQLenPdf::33                      0                       # What write queue length does an incoming req see
system.mem_ctrls.wrQLenPdf::34                      0                       # What write queue length does an incoming req see
system.mem_ctrls.wrQLenPdf::35                      0                       # What write queue length does an incoming req see
system.mem_ctrls.wrQLenPdf::36                      0                       # What write queue length does an incoming req see
system.mem_ctrls.wrQLenPdf::37                      0                       # What write queue length does an incoming req see
system.mem_ctrls.wrQLenPdf::38                      0                       # What write queue length does an incoming req see
system.mem_ctrls.wrQLenPdf::39                      0                       # What write queue length does an incoming req see
system.mem_ctrls.wrQLenPdf::40                      0                       # What write queue length does an incoming req see
system.mem_ctrls.wrQLenPdf::41                      0                       # What write queue length does an incoming req see
system.mem_ctrls.wrQLenPdf::42                      0                       # What write queue length does an incoming req see
system.mem_ctrls.wrQLenPdf::43                      0                       # What write queue length does an incoming req see
system.mem_ctrls.wrQLenPdf::44                      0                       # What write queue length does an incoming req see
system.mem_ctrls.wrQLenPdf::45                      0                       # What write queue length does an incoming req see
system.mem_ctrls.wrQLenPdf::46                      0                       # What write queue length does an incoming req see
system.mem_ctrls.wrQLenPdf::47                      0                       # What write queue length does an incoming req see
system.mem_ctrls.wrQLenPdf::48                      0                       # What write queue length does an incoming req see
system.mem_ctrls.wrQLenPdf::49                      0                       # What write queue length does an incoming req see
system.mem_ctrls.wrQLenPdf::50                      0                       # What write queue length does an incoming req see
system.mem_ctrls.wrQLenPdf::51                      0                       # What write queue length does an incoming req see
system.mem_ctrls.wrQLenPdf::52                      0                       # What write queue length does an incoming req see
system.mem_ctrls.wrQLenPdf::53                      0                       # What write queue length does an incoming req see
system.mem_ctrls.wrQLenPdf::54                      0                       # What write queue length does an incoming req see
system.mem_ctrls.wrQLenPdf::55                      0                       # What write queue length does an incoming req see
system.mem_ctrls.wrQLenPdf::56                      0                       # What write queue length does an incoming req see
system.mem_ctrls.wrQLenPdf::57                      0                       # What write queue length does an incoming req see
system.mem_ctrls.wrQLenPdf::58                      0                       # What write queue length does an incoming req see
system.mem_ctrls.wrQLenPdf::59                      0                       # What write queue length does an incoming req see
system.mem_ctrls.wrQLenPdf::60                      0                       # What write queue length does an incoming req see
system.mem_ctrls.wrQLenPdf::61                      0                       # What write queue length does an incoming req see
system.mem_ctrls.wrQLenPdf::62                      0                       # What write queue length does an incoming req see
system.mem_ctrls.wrQLenPdf::63                      0                       # What write queue length does an incoming req see
system.mem_ctrls.bytesPerActivate::samples          292                       # Bytes accessed per row activation
system.mem_ctrls.bytesPerActivate::mean    518.794521                       # Bytes accessed per row activation
system.mem_ctrls.bytesPerActivate::gmean   307.437659                       # Bytes accessed per row activation
system.mem_ctrls.bytesPerActivate::stdev   423.061756                       # Bytes accessed per row activation
system.mem_ctrls.bytesPerActivate::0-127           71     24.32%     24.32% # Bytes accessed per row activation
system.mem_ctrls.bytesPerActivate::128-255           51     17.47%     41.78% # Bytes accessed per row activation
system.mem_ctrls.bytesPerActivate::256-383           26      8.90%     50.68% # Bytes accessed per row activation
system.mem_ctrls.bytesPerActivate::384-511           10      3.42%     54.11% # Bytes accessed per row activation
system.mem_ctrls.bytesPerActivate::512-639           11      3.77%     57.88% # Bytes accessed per row activation
system.mem_ctrls.bytesPerActivate::640-767            6      2.05%     59.93% # Bytes accessed per row activation
system.mem_ctrls.bytesPerActivate::768-895            5      1.71%     61.64% # Bytes accessed per row activation
system.mem_ctrls.bytesPerActivate::896-1023            5      1.71%     63.36% # Bytes accessed per row activation
system.mem_ctrls.bytesPerActivate::1024-1151          107     36.64%    100.00% # Bytes accessed per row activation
system.mem_ctrls.bytesPerActivate::total          292                       # Bytes accessed per row activation
system.mem_ctrls.totQLat                     15087250                       # Total ticks spent queuing
system.mem_ctrls.totMemAccLat                59974750                       # Total ticks spent from burst creation until serviced by the DRAM
system.mem_ctrls.totBusLat                   11970000                       # Total ticks spent in databus transfers
system.mem_ctrls.avgQLat                      6302.11                       # Average queueing delay per DRAM burst
system.mem_ctrls.avgBusLat                    5000.00                       # Average bus latency per DRAM burst
system.mem_ctrls.avgMemAccLat                25052.11                       # Average memory access latency per DRAM burst
system.mem_ctrls.avgRdBW                       600.57                       # Average DRAM read bandwidth in MiByte/s
system.mem_ctrls.avgWrBW                         0.00                       # Average achieved write bandwidth in MiByte/s
system.mem_ctrls.avgRdBWSys                    600.57                       # Average system read bandwidth in MiByte/s
system.mem_ctrls.avgWrBWSys                      0.00                       # Average system write bandwidth in MiByte/s
system.mem_ctrls.peakBW                      12800.00                       # Theoretical peak bandwidth in MiByte/s
system.mem_ctrls.busUtil                         4.69                       # Data bus utilization in percentage
system.mem_ctrls.busUtilRead                     4.69                       # Data bus utilization in percentage for reads
system.mem_ctrls.busUtilWrite                    0.00                       # Data bus utilization in percentage for writes
system.mem_ctrls.avgRdQLen                       1.31                       # Average read queue length when enqueuing
system.mem_ctrls.avgWrQLen                       0.00                       # Average write queue length when enqueuing
system.mem_ctrls.readRowHits                     2092                       # Number of row buffer hits during reads
system.mem_ctrls.writeRowHits                       0                       # Number of row buffer hits during writes
system.mem_ctrls.readRowHitRate                 87.39                       # Row buffer hit rate for reads
system.mem_ctrls.writeRowHitRate                  nan                       # Row buffer hit rate for writes
system.mem_ctrls.avgGap                     106549.29                       # Average gap between requests
system.mem_ctrls.pageHitRate                    87.39                       # Row buffer hit rate, read and write combined
system.mem_ctrls_0.actEnergy                  1466640                       # Energy for activate commands per rank (pJ)
system.mem_ctrls_0.preEnergy                   800250                       # Energy for precharge commands per rank (pJ)
system.mem_ctrls_0.readEnergy                 9952800                       # Energy for read commands per rank (pJ)
system.mem_ctrls_0.writeEnergy                      0                       # Energy for write commands per rank (pJ)
system.mem_ctrls_0.refreshEnergy             16273920                       # Energy for refresh commands per rank (pJ)
system.mem_ctrls_0.actBackEnergy             59340420                       # Energy for active background per rank (pJ)
system.mem_ctrls_0.preBackEnergy             97590750                       # Energy for precharge background per rank (pJ)
system.mem_ctrls_0.totalEnergy              185424780                       # Total energy per rank (pJ)
system.mem_ctrls_0.averagePower            743.464849                       # Core power per rank (mW)
system.mem_ctrls_0.memoryStateTime::IDLE    164113750                       # Time in different power states
system.mem_ctrls_0.memoryStateTime::REF       8320000                       # Time in different power states
system.mem_ctrls_0.memoryStateTime::PRE_PDN            0                       # Time in different power states
system.mem_ctrls_0.memoryStateTime::ACT      79289250                       # Time in different power states
system.mem_ctrls_0.memoryStateTime::ACT_PDN            0                       # Time in different power states
system.mem_ctrls_1.actEnergy                   695520                       # Energy for activate commands per rank (pJ)
system.mem_ctrls_1.preEnergy                   379500                       # Energy for precharge commands per rank (pJ)
system.mem_ctrls_1.readEnergy                 8275800                       # Energy for read commands per rank (pJ)
system.mem_ctrls_1.writeEnergy                      0                       # Energy for write commands per rank (pJ)
system.mem_ctrls_1.refreshEnergy             16273920                       # Energy for refresh commands per rank (pJ)
system.mem_ctrls_1.actBackEnergy             61301790                       # Energy for active background per rank (pJ)
system.mem_ctrls_1.preBackEnergy             95870250                       # Energy for precharge background per rank (pJ)
system.mem_ctrls_1.totalEnergy              182796780                       # Total energy per rank (pJ)
system.mem_ctrls_1.averagePower            732.927824                       # Core power per rank (mW)
system.mem_ctrls_1.memoryStateTime::IDLE    161535000                       # Time in different power states
system.mem_ctrls_1.memoryStateTime::REF       8320000                       # Time in different power states
system.mem_ctrls_1.memoryStateTime::PRE_PDN            0                       # Time in different power states
system.mem_ctrls_1.memoryStateTime::ACT      82417000                       # Time in different power states
system.mem_ctrls_1.memoryStateTime::ACT_PDN            0                       # Time in different power states
system.cpu0.branchPred.lookups                  88170                       # Number of BP lookups
system.cpu0.branchPred.condPredicted            85535                       # Number of conditional branches predicted
system.cpu0.branchPred.condIncorrect             2238                       # Number of conditional branches incorrect
system.cpu0.branchPred.BTBLookups               85779                       # Number of BTB lookups
system.cpu0.branchPred.BTBHits                  82024                       # Number of BTB hits
system.cpu0.branchPred.BTBCorrect                   0                       # Number of correct BTB predictions (this stat may not work properly.
system.cpu0.branchPred.BTBHitPct            95.622472                       # BTB Hit Percentage
system.cpu0.branchPred.usedRAS                    961                       # Number of times the RAS was used to get a target.
system.cpu0.branchPred.RASInCorrect                14                       # Number of incorrect RAS predictions.
system.cpu_voltage_domain.voltage                   1                       # Voltage in Volts
system.cpu_clk_domain.clock                       500                       # Clock period in ticks
system.cpu0.dstage2_mmu.stage2_tlb.walker.walks            0                       # Table walker walks requested
system.cpu0.dstage2_mmu.stage2_tlb.walker.walkRequestOrigin_Requested::Data            0                       # Table walker requests started/completed, data/inst
system.cpu0.dstage2_mmu.stage2_tlb.walker.walkRequestOrigin_Requested::Inst            0                       # Table walker requests started/completed, data/inst
system.cpu0.dstage2_mmu.stage2_tlb.walker.walkRequestOrigin_Requested::total            0                       # Table walker requests started/completed, data/inst
system.cpu0.dstage2_mmu.stage2_tlb.walker.walkRequestOrigin_Completed::Data            0                       # Table walker requests started/completed, data/inst
system.cpu0.dstage2_mmu.stage2_tlb.walker.walkRequestOrigin_Completed::Inst            0                       # Table walker requests started/completed, data/inst
system.cpu0.dstage2_mmu.stage2_tlb.walker.walkRequestOrigin_Completed::total            0                       # Table walker requests started/completed, data/inst
system.cpu0.dstage2_mmu.stage2_tlb.walker.walkRequestOrigin::total            0                       # Table walker requests started/completed, data/inst
system.cpu0.dstage2_mmu.stage2_tlb.inst_hits            0                       # ITB inst hits
system.cpu0.dstage2_mmu.stage2_tlb.inst_misses            0                       # ITB inst misses
system.cpu0.dstage2_mmu.stage2_tlb.read_hits            0                       # DTB read hits
system.cpu0.dstage2_mmu.stage2_tlb.read_misses            0                       # DTB read misses
system.cpu0.dstage2_mmu.stage2_tlb.write_hits            0                       # DTB write hits
system.cpu0.dstage2_mmu.stage2_tlb.write_misses            0                       # DTB write misses
system.cpu0.dstage2_mmu.stage2_tlb.flush_tlb            0                       # Number of times complete TLB was flushed
system.cpu0.dstage2_mmu.stage2_tlb.flush_tlb_mva            0                       # Number of times TLB was flushed by MVA
system.cpu0.dstage2_mmu.stage2_tlb.flush_tlb_mva_asid            0                       # Number of times TLB was flushed by MVA & ASID
system.cpu0.dstage2_mmu.stage2_tlb.flush_tlb_asid            0                       # Number of times TLB was flushed by ASID
system.cpu0.dstage2_mmu.stage2_tlb.flush_entries            0                       # Number of entries that have been flushed from TLB
system.cpu0.dstage2_mmu.stage2_tlb.align_faults            0                       # Number of TLB faults due to alignment restrictions
system.cpu0.dstage2_mmu.stage2_tlb.prefetch_faults            0                       # Number of TLB faults due to prefetch
system.cpu0.dstage2_mmu.stage2_tlb.domain_faults            0                       # Number of TLB faults due to domain restrictions
system.cpu0.dstage2_mmu.stage2_tlb.perms_faults            0                       # Number of TLB faults due to permissions restrictions
system.cpu0.dstage2_mmu.stage2_tlb.read_accesses            0                       # DTB read accesses
system.cpu0.dstage2_mmu.stage2_tlb.write_accesses            0                       # DTB write accesses
system.cpu0.dstage2_mmu.stage2_tlb.inst_accesses            0                       # ITB inst accesses
system.cpu0.dstage2_mmu.stage2_tlb.hits             0                       # DTB hits
system.cpu0.dstage2_mmu.stage2_tlb.misses            0                       # DTB misses
system.cpu0.dstage2_mmu.stage2_tlb.accesses            0                       # DTB accesses
system.cpu0.dtb.walker.walks                        0                       # Table walker walks requested
system.cpu0.dtb.walker.walkRequestOrigin_Requested::Data            0                       # Table walker requests started/completed, data/inst
system.cpu0.dtb.walker.walkRequestOrigin_Requested::Inst            0                       # Table walker requests started/completed, data/inst
system.cpu0.dtb.walker.walkRequestOrigin_Requested::total            0                       # Table walker requests started/completed, data/inst
system.cpu0.dtb.walker.walkRequestOrigin_Completed::Data            0                       # Table walker requests started/completed, data/inst
system.cpu0.dtb.walker.walkRequestOrigin_Completed::Inst            0                       # Table walker requests started/completed, data/inst
system.cpu0.dtb.walker.walkRequestOrigin_Completed::total            0                       # Table walker requests started/completed, data/inst
system.cpu0.dtb.walker.walkRequestOrigin::total            0                       # Table walker requests started/completed, data/inst
system.cpu0.dtb.inst_hits                           0                       # ITB inst hits
system.cpu0.dtb.inst_misses                         0                       # ITB inst misses
system.cpu0.dtb.read_hits                           0                       # DTB read hits
system.cpu0.dtb.read_misses                         0                       # DTB read misses
system.cpu0.dtb.write_hits                          0                       # DTB write hits
system.cpu0.dtb.write_misses                        0                       # DTB write misses
system.cpu0.dtb.flush_tlb                           0                       # Number of times complete TLB was flushed
system.cpu0.dtb.flush_tlb_mva                       0                       # Number of times TLB was flushed by MVA
system.cpu0.dtb.flush_tlb_mva_asid                  0                       # Number of times TLB was flushed by MVA & ASID
system.cpu0.dtb.flush_tlb_asid                      0                       # Number of times TLB was flushed by ASID
system.cpu0.dtb.flush_entries                       0                       # Number of entries that have been flushed from TLB
system.cpu0.dtb.align_faults                        0                       # Number of TLB faults due to alignment restrictions
system.cpu0.dtb.prefetch_faults                     0                       # Number of TLB faults due to prefetch
system.cpu0.dtb.domain_faults                       0                       # Number of TLB faults due to domain restrictions
system.cpu0.dtb.perms_faults                        0                       # Number of TLB faults due to permissions restrictions
system.cpu0.dtb.read_accesses                       0                       # DTB read accesses
system.cpu0.dtb.write_accesses                      0                       # DTB write accesses
system.cpu0.dtb.inst_accesses                       0                       # ITB inst accesses
system.cpu0.dtb.hits                                0                       # DTB hits
system.cpu0.dtb.misses                              0                       # DTB misses
system.cpu0.dtb.accesses                            0                       # DTB accesses
system.cpu0.istage2_mmu.stage2_tlb.walker.walks            0                       # Table walker walks requested
system.cpu0.istage2_mmu.stage2_tlb.walker.walkRequestOrigin_Requested::Data            0                       # Table walker requests started/completed, data/inst
system.cpu0.istage2_mmu.stage2_tlb.walker.walkRequestOrigin_Requested::Inst            0                       # Table walker requests started/completed, data/inst
system.cpu0.istage2_mmu.stage2_tlb.walker.walkRequestOrigin_Requested::total            0                       # Table walker requests started/completed, data/inst
system.cpu0.istage2_mmu.stage2_tlb.walker.walkRequestOrigin_Completed::Data            0                       # Table walker requests started/completed, data/inst
system.cpu0.istage2_mmu.stage2_tlb.walker.walkRequestOrigin_Completed::Inst            0                       # Table walker requests started/completed, data/inst
system.cpu0.istage2_mmu.stage2_tlb.walker.walkRequestOrigin_Completed::total            0                       # Table walker requests started/completed, data/inst
system.cpu0.istage2_mmu.stage2_tlb.walker.walkRequestOrigin::total            0                       # Table walker requests started/completed, data/inst
system.cpu0.istage2_mmu.stage2_tlb.inst_hits            0                       # ITB inst hits
system.cpu0.istage2_mmu.stage2_tlb.inst_misses            0                       # ITB inst misses
system.cpu0.istage2_mmu.stage2_tlb.read_hits            0                       # DTB read hits
system.cpu0.istage2_mmu.stage2_tlb.read_misses            0                       # DTB read misses
system.cpu0.istage2_mmu.stage2_tlb.write_hits            0                       # DTB write hits
system.cpu0.istage2_mmu.stage2_tlb.write_misses            0                       # DTB write misses
system.cpu0.istage2_mmu.stage2_tlb.flush_tlb            0                       # Number of times complete TLB was flushed
system.cpu0.istage2_mmu.stage2_tlb.flush_tlb_mva            0                       # Number of times TLB was flushed by MVA
system.cpu0.istage2_mmu.stage2_tlb.flush_tlb_mva_asid            0                       # Number of times TLB was flushed by MVA & ASID
system.cpu0.istage2_mmu.stage2_tlb.flush_tlb_asid            0                       # Number of times TLB was flushed by ASID
system.cpu0.istage2_mmu.stage2_tlb.flush_entries            0                       # Number of entries that have been flushed from TLB
system.cpu0.istage2_mmu.stage2_tlb.align_faults            0                       # Number of TLB faults due to alignment restrictions
system.cpu0.istage2_mmu.stage2_tlb.prefetch_faults            0                       # Number of TLB faults due to prefetch
system.cpu0.istage2_mmu.stage2_tlb.domain_faults            0                       # Number of TLB faults due to domain restrictions
system.cpu0.istage2_mmu.stage2_tlb.perms_faults            0                       # Number of TLB faults due to permissions restrictions
system.cpu0.istage2_mmu.stage2_tlb.read_accesses            0                       # DTB read accesses
system.cpu0.istage2_mmu.stage2_tlb.write_accesses            0                       # DTB write accesses
system.cpu0.istage2_mmu.stage2_tlb.inst_accesses            0                       # ITB inst accesses
system.cpu0.istage2_mmu.stage2_tlb.hits             0                       # DTB hits
system.cpu0.istage2_mmu.stage2_tlb.misses            0                       # DTB misses
system.cpu0.istage2_mmu.stage2_tlb.accesses            0                       # DTB accesses
system.cpu0.itb.walker.walks                        0                       # Table walker walks requested
system.cpu0.itb.walker.walkRequestOrigin_Requested::Data            0                       # Table walker requests started/completed, data/inst
system.cpu0.itb.walker.walkRequestOrigin_Requested::Inst            0                       # Table walker requests started/completed, data/inst
system.cpu0.itb.walker.walkRequestOrigin_Requested::total            0                       # Table walker requests started/completed, data/inst
system.cpu0.itb.walker.walkRequestOrigin_Completed::Data            0                       # Table walker requests started/completed, data/inst
system.cpu0.itb.walker.walkRequestOrigin_Completed::Inst            0                       # Table walker requests started/completed, data/inst
system.cpu0.itb.walker.walkRequestOrigin_Completed::total            0                       # Table walker requests started/completed, data/inst
system.cpu0.itb.walker.walkRequestOrigin::total            0                       # Table walker requests started/completed, data/inst
system.cpu0.itb.inst_hits                           0                       # ITB inst hits
system.cpu0.itb.inst_misses                         0                       # ITB inst misses
system.cpu0.itb.read_hits                           0                       # DTB read hits
system.cpu0.itb.read_misses                         0                       # DTB read misses
system.cpu0.itb.write_hits                          0                       # DTB write hits
system.cpu0.itb.write_misses                        0                       # DTB write misses
system.cpu0.itb.flush_tlb                           0                       # Number of times complete TLB was flushed
system.cpu0.itb.flush_tlb_mva                       0                       # Number of times TLB was flushed by MVA
system.cpu0.itb.flush_tlb_mva_asid                  0                       # Number of times TLB was flushed by MVA & ASID
system.cpu0.itb.flush_tlb_asid                      0                       # Number of times TLB was flushed by ASID
system.cpu0.itb.flush_entries                       0                       # Number of entries that have been flushed from TLB
system.cpu0.itb.align_faults                        0                       # Number of TLB faults due to alignment restrictions
system.cpu0.itb.prefetch_faults                     0                       # Number of TLB faults due to prefetch
system.cpu0.itb.domain_faults                       0                       # Number of TLB faults due to domain restrictions
system.cpu0.itb.perms_faults                        0                       # Number of TLB faults due to permissions restrictions
system.cpu0.itb.read_accesses                       0                       # DTB read accesses
system.cpu0.itb.write_accesses                      0                       # DTB write accesses
system.cpu0.itb.inst_accesses                       0                       # ITB inst accesses
system.cpu0.itb.hits                                0                       # DTB hits
system.cpu0.itb.misses                              0                       # DTB misses
system.cpu0.itb.accesses                            0                       # DTB accesses
system.cpu0.workload.num_syscalls                  37                       # Number of system calls
system.cpu0.numCycles                          510238                       # number of cpu cycles simulated
system.cpu0.numWorkItemsStarted                     0                       # number of work items this cpu started
system.cpu0.numWorkItemsCompleted                   0                       # number of work items this cpu completed
system.cpu0.fetch.icacheStallCycles            163632                       # Number of cycles fetch is stalled on an Icache miss
system.cpu0.fetch.Insts                       1176611                       # Number of instructions fetch has processed
system.cpu0.fetch.Branches                      88170                       # Number of branches that fetch encountered
system.cpu0.fetch.predictedBranches             82985                       # Number of branches that fetch has predicted taken
system.cpu0.fetch.Cycles                       299868                       # Number of cycles fetch has run and was not squashing or blocked
system.cpu0.fetch.SquashCycles                   4617                       # Number of cycles fetch has spent squashing
system.cpu0.fetch.MiscStallCycles                   1                       # Number of cycles fetch has spent waiting on interrupts, or bad addresses, or out of MSHRs
system.cpu0.fetch.PendingTrapStallCycles            5                       # Number of stall cycles due to pending traps
system.cpu0.fetch.CacheLines                   149761                       # Number of cache lines fetched
system.cpu0.fetch.IcacheSquashes                  717                       # Number of outstanding Icache misses that were squashed
system.cpu0.fetch.rateDist::samples            465814                       # Number of instructions fetched each cycle (Total)
system.cpu0.fetch.rateDist::mean             2.597642                       # Number of instructions fetched each cycle (Total)
system.cpu0.fetch.rateDist::stdev            3.519115                       # Number of instructions fetched each cycle (Total)
system.cpu0.fetch.rateDist::underflows              0      0.00%      0.00% # Number of instructions fetched each cycle (Total)
system.cpu0.fetch.rateDist::0                  292795     62.86%     62.86% # Number of instructions fetched each cycle (Total)
system.cpu0.fetch.rateDist::1                    3851      0.83%     63.68% # Number of instructions fetched each cycle (Total)
system.cpu0.fetch.rateDist::2                    5721      1.23%     64.91% # Number of instructions fetched each cycle (Total)
system.cpu0.fetch.rateDist::3                    1105      0.24%     65.15% # Number of instructions fetched each cycle (Total)
system.cpu0.fetch.rateDist::4                    6590      1.41%     66.56% # Number of instructions fetched each cycle (Total)
system.cpu0.fetch.rateDist::5                     991      0.21%     66.78% # Number of instructions fetched each cycle (Total)
system.cpu0.fetch.rateDist::6                    5099      1.09%     67.87% # Number of instructions fetched each cycle (Total)
system.cpu0.fetch.rateDist::7                   67795     14.55%     82.42% # Number of instructions fetched each cycle (Total)
system.cpu0.fetch.rateDist::8                   81867     17.58%    100.00% # Number of instructions fetched each cycle (Total)
system.cpu0.fetch.rateDist::overflows               0      0.00%    100.00% # Number of instructions fetched each cycle (Total)
system.cpu0.fetch.rateDist::min_value               0                       # Number of instructions fetched each cycle (Total)
system.cpu0.fetch.rateDist::max_value               8                       # Number of instructions fetched each cycle (Total)
system.cpu0.fetch.rateDist::total              465814                       # Number of instructions fetched each cycle (Total)
system.cpu0.fetch.branchRate                 0.172802                       # Number of branch fetches per cycle
system.cpu0.fetch.rate                       2.306004                       # Number of inst fetches per cycle
system.cpu0.decode.IdleCycles                  147073                       # Number of cycles decode is idle
system.cpu0.decode.BlockedCycles               150304                       # Number of cycles decode is blocked
system.cpu0.decode.RunCycles                   156512                       # Number of cycles decode is running
system.cpu0.decode.UnblockCycles                 9963                       # Number of cycles decode is unblocking
system.cpu0.decode.SquashCycles                  1962                       # Number of cycles decode is squashing
system.cpu0.decode.BranchResolved                1182                       # Number of times decode resolved a branch
system.cpu0.decode.BranchMispred                  356                       # Number of times decode detected a branch misprediction
system.cpu0.decode.DecodedInsts               1201534                       # Number of instructions handled by decode
system.cpu0.decode.SquashedInsts                 1343                       # Number of squashed instructions handled by decode
system.cpu0.rename.SquashCycles                  1962                       # Number of cycles rename is squashing
system.cpu0.rename.IdleCycles                  152377                       # Number of cycles rename is idle
system.cpu0.rename.BlockCycles                   3982                       # Number of cycles rename is blocking
system.cpu0.rename.serializeStallCycles          8439                       # count of cycles rename stalled for serializing inst
system.cpu0.rename.RunCycles                   161076                       # Number of cycles rename is running
system.cpu0.rename.UnblockCycles               137978                       # Number of cycles rename is unblocking
system.cpu0.rename.RenamedInsts               1190247                       # Number of instructions processed by rename
system.cpu0.rename.ROBFullEvents                   11                       # Number of times rename has blocked due to ROB full
system.cpu0.rename.IQFullEvents                  1981                       # Number of times rename has blocked due to IQ full
system.cpu0.rename.LQFullEvents                 11467                       # Number of times rename has blocked due to LQ full
system.cpu0.rename.SQFullEvents                121356                       # Number of times rename has blocked due to SQ full
system.cpu0.rename.RenamedOperands            1526716                       # Number of destination operands rename has renamed
system.cpu0.rename.RenameLookups              5892414                       # Number of register rename lookups that rename has made
system.cpu0.rename.int_rename_lookups         1961079                       # Number of integer rename lookups
system.cpu0.rename.fp_rename_lookups               22                       # Number of floating rename lookups
system.cpu0.rename.CommittedMaps              1481223                       # Number of HB maps that are committed
system.cpu0.rename.UndoneMaps                   45493                       # Number of HB maps that are undone due to squashing
system.cpu0.rename.serializingInsts               139                       # count of serializing insts renamed
system.cpu0.rename.tempSerializingInsts           140                       # count of temporary serializing insts renamed
system.cpu0.rename.skidInsts                    59411                       # count of insts added to the skid buffer
system.cpu0.memDep0.insertedLoads              277183                       # Number of loads inserted to the mem dependence unit.
system.cpu0.memDep0.insertedStores              49596                       # Number of stores inserted to the mem dependence unit.
system.cpu0.memDep0.conflictingLoads             2676                       # Number of conflicting loads.
system.cpu0.memDep0.conflictingStores             548                       # Number of conflicting stores.
system.cpu0.iq.iqInstsAdded                   1179100                       # Number of instructions added to the IQ (excludes non-spec)
system.cpu0.iq.iqNonSpecInstsAdded                285                       # Number of non-speculative instructions added to the IQ
system.cpu0.iq.iqInstsIssued                  1170073                       # Number of instructions issued
system.cpu0.iq.iqSquashedInstsIssued               92                       # Number of squashed instructions issued
system.cpu0.iq.iqSquashedInstsExamined          26548                       # Number of squashed instructions iterated over during squash; mainly for profiling
system.cpu0.iq.iqSquashedOperandsExamined        72337                       # Number of squashed operands that are examined and possibly removed from graph
system.cpu0.iq.iqSquashedNonSpecRemoved            96                       # Number of squashed non-spec instructions that were removed
system.cpu0.iq.issued_per_cycle::samples       465814                       # Number of insts issued each cycle
system.cpu0.iq.issued_per_cycle::mean        2.511889                       # Number of insts issued each cycle
system.cpu0.iq.issued_per_cycle::stdev       2.639654                       # Number of insts issued each cycle
system.cpu0.iq.issued_per_cycle::underflows            0      0.00%      0.00% # Number of insts issued each cycle
system.cpu0.iq.issued_per_cycle::0             147601     31.69%     31.69% # Number of insts issued each cycle
system.cpu0.iq.issued_per_cycle::1              72899     15.65%     47.34% # Number of insts issued each cycle
system.cpu0.iq.issued_per_cycle::2              48295     10.37%     57.70% # Number of insts issued each cycle
system.cpu0.iq.issued_per_cycle::3              62885     13.50%     71.20% # Number of insts issued each cycle
system.cpu0.iq.issued_per_cycle::4              48608     10.44%     81.64% # Number of insts issued each cycle
system.cpu0.iq.issued_per_cycle::5              13814      2.97%     84.61% # Number of insts issued each cycle
system.cpu0.iq.issued_per_cycle::6               9559      2.05%     86.66% # Number of insts issued each cycle
system.cpu0.iq.issued_per_cycle::7               6151      1.32%     87.98% # Number of insts issued each cycle
system.cpu0.iq.issued_per_cycle::8              56002     12.02%    100.00% # Number of insts issued each cycle
system.cpu0.iq.issued_per_cycle::overflows            0      0.00%    100.00% # Number of insts issued each cycle
system.cpu0.iq.issued_per_cycle::min_value            0                       # Number of insts issued each cycle
system.cpu0.iq.issued_per_cycle::max_value            8                       # Number of insts issued each cycle
system.cpu0.iq.issued_per_cycle::total         465814                       # Number of insts issued each cycle
system.cpu0.iq.fu_full::No_OpClass                  0      0.00%      0.00% # attempts to use FU when none available
system.cpu0.iq.fu_full::IntAlu                     53      0.18%      0.18% # attempts to use FU when none available
system.cpu0.iq.fu_full::IntMult                 29369     98.21%     98.38% # attempts to use FU when none available
system.cpu0.iq.fu_full::IntDiv                      0      0.00%     98.38% # attempts to use FU when none available
system.cpu0.iq.fu_full::FloatAdd                    0      0.00%     98.38% # attempts to use FU when none available
system.cpu0.iq.fu_full::FloatCmp                    0      0.00%     98.38% # attempts to use FU when none available
system.cpu0.iq.fu_full::FloatCvt                    0      0.00%     98.38% # attempts to use FU when none available
system.cpu0.iq.fu_full::FloatMult                   0      0.00%     98.38% # attempts to use FU when none available
system.cpu0.iq.fu_full::FloatDiv                    0      0.00%     98.38% # attempts to use FU when none available
system.cpu0.iq.fu_full::FloatSqrt                   0      0.00%     98.38% # attempts to use FU when none available
system.cpu0.iq.fu_full::SimdAdd                     0      0.00%     98.38% # attempts to use FU when none available
system.cpu0.iq.fu_full::SimdAddAcc                  0      0.00%     98.38% # attempts to use FU when none available
system.cpu0.iq.fu_full::SimdAlu                     0      0.00%     98.38% # attempts to use FU when none available
system.cpu0.iq.fu_full::SimdCmp                     0      0.00%     98.38% # attempts to use FU when none available
system.cpu0.iq.fu_full::SimdCvt                     0      0.00%     98.38% # attempts to use FU when none available
system.cpu0.iq.fu_full::SimdMisc                    0      0.00%     98.38% # attempts to use FU when none available
system.cpu0.iq.fu_full::SimdMult                    0      0.00%     98.38% # attempts to use FU when none available
system.cpu0.iq.fu_full::SimdMultAcc                 0      0.00%     98.38% # attempts to use FU when none available
system.cpu0.iq.fu_full::SimdShift                   0      0.00%     98.38% # attempts to use FU when none available
system.cpu0.iq.fu_full::SimdShiftAcc                0      0.00%     98.38% # attempts to use FU when none available
system.cpu0.iq.fu_full::SimdSqrt                    0      0.00%     98.38% # attempts to use FU when none available
system.cpu0.iq.fu_full::SimdFloatAdd                0      0.00%     98.38% # attempts to use FU when none available
system.cpu0.iq.fu_full::SimdFloatAlu                0      0.00%     98.38% # attempts to use FU when none available
system.cpu0.iq.fu_full::SimdFloatCmp                0      0.00%     98.38% # attempts to use FU when none available
system.cpu0.iq.fu_full::SimdFloatCvt                0      0.00%     98.38% # attempts to use FU when none available
system.cpu0.iq.fu_full::SimdFloatDiv                0      0.00%     98.38% # attempts to use FU when none available
system.cpu0.iq.fu_full::SimdFloatMisc               0      0.00%     98.38% # attempts to use FU when none available
system.cpu0.iq.fu_full::SimdFloatMult               0      0.00%     98.38% # attempts to use FU when none available
system.cpu0.iq.fu_full::SimdFloatMultAcc            0      0.00%     98.38% # attempts to use FU when none available
system.cpu0.iq.fu_full::SimdFloatSqrt               0      0.00%     98.38% # attempts to use FU when none available
system.cpu0.iq.fu_full::MemRead                   281      0.94%     99.32% # attempts to use FU when none available
system.cpu0.iq.fu_full::MemWrite                  202      0.68%    100.00% # attempts to use FU when none available
system.cpu0.iq.fu_full::IprAccess                   0      0.00%    100.00% # attempts to use FU when none available
system.cpu0.iq.fu_full::InstPrefetch                0      0.00%    100.00% # attempts to use FU when none available
system.cpu0.iq.FU_type_0::No_OpClass                0      0.00%      0.00% # Type of FU issued
system.cpu0.iq.FU_type_0::IntAlu               639905     54.69%     54.69% # Type of FU issued
system.cpu0.iq.FU_type_0::IntMult              205118     17.53%     72.22% # Type of FU issued
system.cpu0.iq.FU_type_0::IntDiv                    0      0.00%     72.22% # Type of FU issued
system.cpu0.iq.FU_type_0::FloatAdd                  0      0.00%     72.22% # Type of FU issued
system.cpu0.iq.FU_type_0::FloatCmp                  0      0.00%     72.22% # Type of FU issued
system.cpu0.iq.FU_type_0::FloatCvt                  0      0.00%     72.22% # Type of FU issued
system.cpu0.iq.FU_type_0::FloatMult                 0      0.00%     72.22% # Type of FU issued
system.cpu0.iq.FU_type_0::FloatDiv                  0      0.00%     72.22% # Type of FU issued
system.cpu0.iq.FU_type_0::FloatSqrt                 0      0.00%     72.22% # Type of FU issued
system.cpu0.iq.FU_type_0::SimdAdd                   0      0.00%     72.22% # Type of FU issued
system.cpu0.iq.FU_type_0::SimdAddAcc                0      0.00%     72.22% # Type of FU issued
system.cpu0.iq.FU_type_0::SimdAlu                   0      0.00%     72.22% # Type of FU issued
system.cpu0.iq.FU_type_0::SimdCmp                   0      0.00%     72.22% # Type of FU issued
system.cpu0.iq.FU_type_0::SimdCvt                   0      0.00%     72.22% # Type of FU issued
system.cpu0.iq.FU_type_0::SimdMisc                  0      0.00%     72.22% # Type of FU issued
system.cpu0.iq.FU_type_0::SimdMult                  0      0.00%     72.22% # Type of FU issued
system.cpu0.iq.FU_type_0::SimdMultAcc               0      0.00%     72.22% # Type of FU issued
system.cpu0.iq.FU_type_0::SimdShift                 0      0.00%     72.22% # Type of FU issued
system.cpu0.iq.FU_type_0::SimdShiftAcc              0      0.00%     72.22% # Type of FU issued
system.cpu0.iq.FU_type_0::SimdSqrt                  0      0.00%     72.22% # Type of FU issued
system.cpu0.iq.FU_type_0::SimdFloatAdd              0      0.00%     72.22% # Type of FU issued
system.cpu0.iq.FU_type_0::SimdFloatAlu              0      0.00%     72.22% # Type of FU issued
system.cpu0.iq.FU_type_0::SimdFloatCmp              0      0.00%     72.22% # Type of FU issued
system.cpu0.iq.FU_type_0::SimdFloatCvt              0      0.00%     72.22% # Type of FU issued
system.cpu0.iq.FU_type_0::SimdFloatDiv              0      0.00%     72.22% # Type of FU issued
system.cpu0.iq.FU_type_0::SimdFloatMisc             3      0.00%     72.22% # Type of FU issued
system.cpu0.iq.FU_type_0::SimdFloatMult             0      0.00%     72.22% # Type of FU issued
system.cpu0.iq.FU_type_0::SimdFloatMultAcc            0      0.00%     72.22% # Type of FU issued
system.cpu0.iq.FU_type_0::SimdFloatSqrt             0      0.00%     72.22% # Type of FU issued
system.cpu0.iq.FU_type_0::MemRead              276385     23.62%     95.84% # Type of FU issued
system.cpu0.iq.FU_type_0::MemWrite              48662      4.16%    100.00% # Type of FU issued
system.cpu0.iq.FU_type_0::IprAccess                 0      0.00%    100.00% # Type of FU issued
system.cpu0.iq.FU_type_0::InstPrefetch              0      0.00%    100.00% # Type of FU issued
system.cpu0.iq.FU_type_0::total               1170073                       # Type of FU issued
system.cpu0.iq.rate                          2.293191                       # Inst issue rate
system.cpu0.iq.fu_busy_cnt                      29905                       # FU busy when requested
system.cpu0.iq.fu_busy_rate                  0.025558                       # FU busy rate (busy events/executed inst)
system.cpu0.iq.int_inst_queue_reads           2835895                       # Number of integer instruction queue reads
system.cpu0.iq.int_inst_queue_writes          1205981                       # Number of integer instruction queue writes
system.cpu0.iq.int_inst_queue_wakeup_accesses      1163295                       # Number of integer instruction queue wakeup accesses
system.cpu0.iq.fp_inst_queue_reads                 62                       # Number of floating instruction queue reads
system.cpu0.iq.fp_inst_queue_writes                28                       # Number of floating instruction queue writes
system.cpu0.iq.fp_inst_queue_wakeup_accesses           28                       # Number of floating instruction queue wakeup accesses
system.cpu0.iq.int_alu_accesses               1199944                       # Number of integer alu accesses
system.cpu0.iq.fp_alu_accesses                     34                       # Number of floating point alu accesses
system.cpu0.iew.lsq.thread0.forwLoads             128                       # Number of loads that had data forwarded from stores
system.cpu0.iew.lsq.thread0.invAddrLoads            0                       # Number of loads ignored due to an invalid address
system.cpu0.iew.lsq.thread0.squashedLoads         7525                       # Number of loads squashed
system.cpu0.iew.lsq.thread0.ignoredResponses            4                       # Number of memory responses ignored because the instruction is squashed
system.cpu0.iew.lsq.thread0.memOrderViolation           81                       # Number of memory ordering violations
system.cpu0.iew.lsq.thread0.squashedStores         1647                       # Number of stores squashed
system.cpu0.iew.lsq.thread0.invAddrSwpfs            0                       # Number of software prefetches ignored due to an invalid address
system.cpu0.iew.lsq.thread0.blockedLoads            0                       # Number of blocked loads due to partial load-store forwarding
system.cpu0.iew.lsq.thread0.rescheduledLoads          173                       # Number of loads that were rescheduled
system.cpu0.iew.lsq.thread0.cacheBlocked           95                       # Number of times an access to memory failed due to the cache being blocked
system.cpu0.iew.iewIdleCycles                       0                       # Number of cycles IEW is idle
system.cpu0.iew.iewSquashCycles                  1962                       # Number of cycles IEW is squashing
system.cpu0.iew.iewBlockCycles                   2840                       # Number of cycles IEW is blocking
system.cpu0.iew.iewUnblockCycles                  761                       # Number of cycles IEW is unblocking
system.cpu0.iew.iewDispatchedInsts            1179392                       # Number of instructions dispatched to IQ
system.cpu0.iew.iewDispSquashedInsts              264                       # Number of squashed instructions skipped by dispatch
system.cpu0.iew.iewDispLoadInsts               277183                       # Number of dispatched load instructions
system.cpu0.iew.iewDispStoreInsts               49596                       # Number of dispatched store instructions
system.cpu0.iew.iewDispNonSpecInsts               131                       # Number of dispatched non-speculative instructions
system.cpu0.iew.iewIQFullEvents                    35                       # Number of times the IQ has become full, causing a stall
system.cpu0.iew.iewLSQFullEvents                  719                       # Number of times the LSQ has become full, causing a stall
system.cpu0.iew.memOrderViolationEvents            81                       # Number of memory order violations
system.cpu0.iew.predictedTakenIncorrect          1366                       # Number of branches that were predicted taken incorrectly
system.cpu0.iew.predictedNotTakenIncorrect          663                       # Number of branches that were predicted not taken incorrectly
system.cpu0.iew.branchMispredicts                2029                       # Number of branch mispredicts detected at execute
system.cpu0.iew.iewExecutedInsts              1167613                       # Number of executed instructions
system.cpu0.iew.iewExecLoadInsts               275211                       # Number of load instructions executed
system.cpu0.iew.iewExecSquashedInsts             2460                       # Number of squashed instructions skipped in execute
system.cpu0.iew.exec_swp                            0                       # number of swp insts executed
system.cpu0.iew.exec_nop                            7                       # number of nop insts executed
system.cpu0.iew.exec_refs                      323665                       # number of memory reference insts executed
system.cpu0.iew.exec_branches                   82812                       # Number of branches executed
system.cpu0.iew.exec_stores                     48454                       # Number of stores executed
system.cpu0.iew.exec_rate                    2.288369                       # Inst execution rate
system.cpu0.iew.wb_sent                       1163918                       # cumulative count of insts sent to commit
system.cpu0.iew.wb_count                      1163323                       # cumulative count of insts written-back
system.cpu0.iew.wb_producers                   918641                       # num instructions producing a value
system.cpu0.iew.wb_consumers                  1362800                       # num instructions consuming a value
system.cpu0.iew.wb_penalized                        0                       # number of instrctions required to write to 'other' IQ
system.cpu0.iew.wb_rate                      2.279962                       # insts written-back per cycle
system.cpu0.iew.wb_fanout                    0.674084                       # average fanout of values written-back
system.cpu0.iew.wb_penalized_rate                   0                       # fraction of instructions written-back that wrote to 'other' IQ
system.cpu0.commit.commitSquashedInsts          26568                       # The number of squashed insts skipped by commit
system.cpu0.commit.commitNonSpecStalls            189                       # The number of times commit has been forced to stall to communicate backwards
system.cpu0.commit.branchMispredicts             1892                       # The number of times a branch was mispredicted
system.cpu0.commit.committed_per_cycle::samples       461909                       # Number of insts commited each cycle
system.cpu0.commit.committed_per_cycle::mean     2.495810                       # Number of insts commited each cycle
system.cpu0.commit.committed_per_cycle::stdev     3.059454                       # Number of insts commited each cycle
system.cpu0.commit.committed_per_cycle::underflows            0      0.00%      0.00% # Number of insts commited each cycle
system.cpu0.commit.committed_per_cycle::0       185011     40.05%     40.05% # Number of insts commited each cycle
system.cpu0.commit.committed_per_cycle::1       102065     22.10%     62.15% # Number of insts commited each cycle
system.cpu0.commit.committed_per_cycle::2        20343      4.40%     66.55% # Number of insts commited each cycle
system.cpu0.commit.committed_per_cycle::3         3991      0.86%     67.42% # Number of insts commited each cycle
system.cpu0.commit.committed_per_cycle::4        11382      2.46%     69.88% # Number of insts commited each cycle
system.cpu0.commit.committed_per_cycle::5        47730     10.33%     80.22% # Number of insts commited each cycle
system.cpu0.commit.committed_per_cycle::6         7385      1.60%     81.81% # Number of insts commited each cycle
system.cpu0.commit.committed_per_cycle::7         2391      0.52%     82.33% # Number of insts commited each cycle
system.cpu0.commit.committed_per_cycle::8        81611     17.67%    100.00% # Number of insts commited each cycle
system.cpu0.commit.committed_per_cycle::overflows            0      0.00%    100.00% # Number of insts commited each cycle
system.cpu0.commit.committed_per_cycle::min_value            0                       # Number of insts commited each cycle
system.cpu0.commit.committed_per_cycle::max_value            8                       # Number of insts commited each cycle
system.cpu0.commit.committed_per_cycle::total       461909                       # Number of insts commited each cycle
system.cpu0.commit.committedInsts             1123233                       # Number of instructions committed
system.cpu0.commit.committedOps               1152837                       # Number of ops (including micro ops) committed
system.cpu0.commit.swp_count                        0                       # Number of s/w prefetches committed
system.cpu0.commit.refs                        317607                       # Number of memory references committed
system.cpu0.commit.loads                       269658                       # Number of loads committed
system.cpu0.commit.membars                        113                       # Number of memory barriers committed
system.cpu0.commit.branches                     81477                       # Number of branches committed
system.cpu0.commit.fp_insts                        28                       # Number of committed floating point instructions.
system.cpu0.commit.int_insts                  1071941                       # Number of committed integer instructions.
system.cpu0.commit.function_calls                 325                       # Number of function calls committed.
system.cpu0.commit.op_class_0::No_OpClass            0      0.00%      0.00% # Class of committed instruction
system.cpu0.commit.op_class_0::IntAlu          630377     54.68%     54.68% # Class of committed instruction
system.cpu0.commit.op_class_0::IntMult         204850     17.77%     72.45% # Class of committed instruction
system.cpu0.commit.op_class_0::IntDiv               0      0.00%     72.45% # Class of committed instruction
system.cpu0.commit.op_class_0::FloatAdd             0      0.00%     72.45% # Class of committed instruction
system.cpu0.commit.op_class_0::FloatCmp             0      0.00%     72.45% # Class of committed instruction
system.cpu0.commit.op_class_0::FloatCvt             0      0.00%     72.45% # Class of committed instruction
system.cpu0.commit.op_class_0::FloatMult            0      0.00%     72.45% # Class of committed instruction
system.cpu0.commit.op_class_0::FloatDiv             0      0.00%     72.45% # Class of committed instruction
system.cpu0.commit.op_class_0::FloatSqrt            0      0.00%     72.45% # Class of committed instruction
system.cpu0.commit.op_class_0::SimdAdd              0      0.00%     72.45% # Class of committed instruction
system.cpu0.commit.op_class_0::SimdAddAcc            0      0.00%     72.45% # Class of committed instruction
system.cpu0.commit.op_class_0::SimdAlu              0      0.00%     72.45% # Class of committed instruction
system.cpu0.commit.op_class_0::SimdCmp              0      0.00%     72.45% # Class of committed instruction
system.cpu0.commit.op_class_0::SimdCvt              0      0.00%     72.45% # Class of committed instruction
system.cpu0.commit.op_class_0::SimdMisc             0      0.00%     72.45% # Class of committed instruction
system.cpu0.commit.op_class_0::SimdMult             0      0.00%     72.45% # Class of committed instruction
system.cpu0.commit.op_class_0::SimdMultAcc            0      0.00%     72.45% # Class of committed instruction
system.cpu0.commit.op_class_0::SimdShift            0      0.00%     72.45% # Class of committed instruction
system.cpu0.commit.op_class_0::SimdShiftAcc            0      0.00%     72.45% # Class of committed instruction
system.cpu0.commit.op_class_0::SimdSqrt             0      0.00%     72.45% # Class of committed instruction
system.cpu0.commit.op_class_0::SimdFloatAdd            0      0.00%     72.45% # Class of committed instruction
system.cpu0.commit.op_class_0::SimdFloatAlu            0      0.00%     72.45% # Class of committed instruction
system.cpu0.commit.op_class_0::SimdFloatCmp            0      0.00%     72.45% # Class of committed instruction
system.cpu0.commit.op_class_0::SimdFloatCvt            0      0.00%     72.45% # Class of committed instruction
system.cpu0.commit.op_class_0::SimdFloatDiv            0      0.00%     72.45% # Class of committed instruction
system.cpu0.commit.op_class_0::SimdFloatMisc            3      0.00%     72.45% # Class of committed instruction
system.cpu0.commit.op_class_0::SimdFloatMult            0      0.00%     72.45% # Class of committed instruction
system.cpu0.commit.op_class_0::SimdFloatMultAcc            0      0.00%     72.45% # Class of committed instruction
[...]
system.l2.demand_mshr_miss_latency::cpu2.data       391250                       # number of demand (read+write) MSHR miss cycles
system.l2.demand_mshr_miss_latency::cpu3.inst       268000                       # number of demand (read+write) MSHR miss cycles
system.l2.demand_mshr_miss_latency::cpu3.data       353750                       # number of demand (read+write) MSHR miss cycles
system.l2.demand_mshr_miss_latency::total    150111250                       # number of demand (read+write) MSHR miss cycles
system.l2.overall_mshr_miss_latency::cpu0.inst     35678500                       # number of overall MSHR miss cycles
system.l2.overall_mshr_miss_latency::cpu0.data    111750750                       # number of overall MSHR miss cycles
system.l2.overall_mshr_miss_latency::cpu1.inst      1103250                       # number of overall MSHR miss cycles
system.l2.overall_mshr_miss_latency::cpu1.data       452750                       # number of overall MSHR miss cycles
system.l2.overall_mshr_miss_latency::cpu2.inst       113000                       # number of overall MSHR miss cycles
system.l2.overall_mshr_miss_latency::cpu2.data       391250                       # number of overall MSHR miss cycles
system.l2.overall_mshr_miss_latency::cpu3.inst       268000                       # number of overall MSHR miss cycles
system.l2.overall_mshr_miss_latency::cpu3.data       353750                       # number of overall MSHR miss cycles
system.l2.overall_mshr_miss_latency::total    150111250                       # number of overall MSHR miss cycles
system.l2.ReadReq_mshr_miss_rate::cpu0.inst     0.850837                       # mshr miss rate for ReadReq accesses
system.l2.ReadReq_mshr_miss_rate::cpu0.data     0.066107                       # mshr miss rate for ReadReq accesses
system.l2.ReadReq_mshr_miss_rate::cpu1.inst     0.307692                       # mshr miss rate for ReadReq accesses
system.l2.ReadReq_mshr_miss_rate::cpu2.inst     0.040000                       # mshr miss rate for ReadReq accesses
system.l2.ReadReq_mshr_miss_rate::cpu3.inst     0.080000                       # mshr miss rate for ReadReq accesses
system.l2.ReadReq_mshr_miss_rate::cpu3.data     0.014286                       # mshr miss rate for ReadReq accesses
system.l2.ReadReq_mshr_miss_rate::total      0.230019                       # mshr miss rate for ReadReq accesses
system.l2.UpgradeReq_mshr_miss_rate::cpu0.data     0.724138                       # mshr miss rate for UpgradeReq accesses
system.l2.UpgradeReq_mshr_miss_rate::total     0.724138                       # mshr miss rate for UpgradeReq accesses
system.l2.ReadExReq_mshr_miss_rate::cpu0.data     0.480907                       # mshr miss rate for ReadExReq accesses
system.l2.ReadExReq_mshr_miss_rate::cpu1.data     0.003933                       # mshr miss rate for ReadExReq accesses
system.l2.ReadExReq_mshr_miss_rate::cpu2.data     0.003933                       # mshr miss rate for ReadExReq accesses
system.l2.ReadExReq_mshr_miss_rate::cpu3.data     0.003937                       # mshr miss rate for ReadExReq accesses
system.l2.ReadExReq_mshr_miss_rate::total     0.258227                       # mshr miss rate for ReadExReq accesses
system.l2.demand_mshr_miss_rate::cpu0.inst     0.850837                       # mshr miss rate for demand accesses
system.l2.demand_mshr_miss_rate::cpu0.data     0.334199                       # mshr miss rate for demand accesses
system.l2.demand_mshr_miss_rate::cpu1.inst     0.307692                       # mshr miss rate for demand accesses
system.l2.demand_mshr_miss_rate::cpu1.data     0.003643                       # mshr miss rate for demand accesses
system.l2.demand_mshr_miss_rate::cpu2.inst     0.040000                       # mshr miss rate for demand accesses
system.l2.demand_mshr_miss_rate::cpu2.data     0.003255                       # mshr miss rate for demand accesses
system.l2.demand_mshr_miss_rate::cpu3.inst     0.080000                       # mshr miss rate for demand accesses
system.l2.demand_mshr_miss_rate::cpu3.data     0.004604                       # mshr miss rate for demand accesses
system.l2.demand_mshr_miss_rate::total       0.249194                       # mshr miss rate for demand accesses
system.l2.overall_mshr_miss_rate::cpu0.inst     0.850837                       # mshr miss rate for overall accesses
system.l2.overall_mshr_miss_rate::cpu0.data     0.334199                       # mshr miss rate for overall accesses
system.l2.overall_mshr_miss_rate::cpu1.inst     0.307692                       # mshr miss rate for overall accesses
system.l2.overall_mshr_miss_rate::cpu1.data     0.003643                       # mshr miss rate for overall accesses
system.l2.overall_mshr_miss_rate::cpu2.inst     0.040000                       # mshr miss rate for overall accesses
system.l2.overall_mshr_miss_rate::cpu2.data     0.003255                       # mshr miss rate for overall accesses
system.l2.overall_mshr_miss_rate::cpu3.inst     0.080000                       # mshr miss rate for overall accesses
system.l2.overall_mshr_miss_rate::cpu3.data     0.004604                       # mshr miss rate for overall accesses
system.l2.overall_mshr_miss_rate::total      0.249194                       # mshr miss rate for overall accesses
system.l2.ReadReq_avg_mshr_miss_latency::cpu0.inst 63825.581395                       # average ReadReq mshr miss latency
system.l2.ReadReq_avg_mshr_miss_latency::cpu0.data 71702.380952                       # average ReadReq mshr miss latency
system.l2.ReadReq_avg_mshr_miss_latency::cpu1.inst 68953.125000                       # average ReadReq mshr miss latency
system.l2.ReadReq_avg_mshr_miss_latency::cpu2.inst        56500                       # average ReadReq mshr miss latency
system.l2.ReadReq_avg_mshr_miss_latency::cpu3.inst        67000                       # average ReadReq mshr miss latency
system.l2.ReadReq_avg_mshr_miss_latency::cpu3.data        63500                       # average ReadReq mshr miss latency
system.l2.ReadReq_avg_mshr_miss_latency::total 65340.042373                       # average ReadReq mshr miss latency
system.l2.UpgradeReq_avg_mshr_miss_latency::cpu0.data 17762.904762                       # average UpgradeReq mshr miss latency
system.l2.UpgradeReq_avg_mshr_miss_latency::total 17762.904762                       # average UpgradeReq mshr miss latency
system.l2.ReadExReq_avg_mshr_miss_latency::cpu0.data 61323.134328                       # average ReadExReq mshr miss latency
system.l2.ReadExReq_avg_mshr_miss_latency::cpu1.data 113187.500000                       # average ReadExReq mshr miss latency
system.l2.ReadExReq_avg_mshr_miss_latency::cpu2.data 97812.500000                       # average ReadExReq mshr miss latency
system.l2.ReadExReq_avg_mshr_miss_latency::cpu3.data 72562.500000                       # average ReadExReq mshr miss latency
system.l2.ReadExReq_avg_mshr_miss_latency::total 61559.276823                       # average ReadExReq mshr miss latency
system.l2.demand_avg_mshr_miss_latency::cpu0.inst 63825.581395                       # average overall mshr miss latency
system.l2.demand_avg_mshr_miss_latency::cpu0.data 62049.278179                       # average overall mshr miss latency
system.l2.demand_avg_mshr_miss_latency::cpu1.inst 68953.125000                       # average overall mshr miss latency
system.l2.demand_avg_mshr_miss_latency::cpu1.data 113187.500000                       # average overall mshr miss latency
system.l2.demand_avg_mshr_miss_latency::cpu2.inst        56500                       # average overall mshr miss latency
system.l2.demand_avg_mshr_miss_latency::cpu2.data 97812.500000                       # average overall mshr miss latency
system.l2.demand_avg_mshr_miss_latency::cpu3.inst        67000                       # average overall mshr miss latency
system.l2.demand_avg_mshr_miss_latency::cpu3.data        70750                       # average overall mshr miss latency
system.l2.demand_avg_mshr_miss_latency::total 62676.931106                       # average overall mshr miss latency
system.l2.overall_avg_mshr_miss_latency::cpu0.inst 63825.581395                       # average overall mshr miss latency
system.l2.overall_avg_mshr_miss_latency::cpu0.data 62049.278179                       # average overall mshr miss latency
system.l2.overall_avg_mshr_miss_latency::cpu1.inst 68953.125000                       # average overall mshr miss latency
system.l2.overall_avg_mshr_miss_latency::cpu1.data 113187.500000                       # average overall mshr miss latency
system.l2.overall_avg_mshr_miss_latency::cpu2.inst        56500                       # average overall mshr miss latency
system.l2.overall_avg_mshr_miss_latency::cpu2.data 97812.500000                       # average overall mshr miss latency
system.l2.overall_avg_mshr_miss_latency::cpu3.inst        67000                       # average overall mshr miss latency
system.l2.overall_avg_mshr_miss_latency::cpu3.data        70750                       # average overall mshr miss latency
system.l2.overall_avg_mshr_miss_latency::total 62676.931106                       # average overall mshr miss latency
system.l2.no_allocate_misses                        0                       # Number of misses that were no-allocate
system.membus.trans_dist::ReadReq                 707                       # Transaction distribution
system.membus.trans_dist::ReadResp                706                       # Transaction distribution
system.membus.trans_dist::UpgradeReq               43                       # Transaction distribution
system.membus.trans_dist::SCUpgradeReq              9                       # Transaction distribution
system.membus.trans_dist::UpgradeResp              21                       # Transaction distribution
system.membus.trans_dist::ReadExReq              1687                       # Transaction distribution
system.membus.trans_dist::ReadExResp             1687                       # Transaction distribution
system.membus.pkt_count_system.l2.mem_side::system.mem_ctrls.port         4860                       # Packet count per connected master and slave (bytes)
system.membus.pkt_count::total                   4860                       # Packet count per connected master and slave (bytes)
system.membus.pkt_size_system.l2.mem_side::system.mem_ctrls.port       153152                       # Cumulative packet size per connected master and slave (bytes)
system.membus.pkt_size::total                  153152                       # Cumulative packet size per connected master and slave (bytes)
system.membus.snoops                               31                       # Total snoops (count)
system.membus.snoop_fanout::samples              2446                       # Request fanout histogram
system.membus.snoop_fanout::mean                    0                       # Request fanout histogram
system.membus.snoop_fanout::stdev                   0                       # Request fanout histogram
system.membus.snoop_fanout::underflows              0      0.00%      0.00% # Request fanout histogram
system.membus.snoop_fanout::0                    2446    100.00%    100.00% # Request fanout histogram
system.membus.snoop_fanout::1                       0      0.00%    100.00% # Request fanout histogram
system.membus.snoop_fanout::overflows               0      0.00%    100.00% # Request fanout histogram
system.membus.snoop_fanout::min_value               0                       # Request fanout histogram
system.membus.snoop_fanout::max_value               0                       # Request fanout histogram
system.membus.snoop_fanout::total                2446                       # Request fanout histogram
system.membus.reqLayer0.occupancy             2661000                       # Layer occupancy (ticks)
system.membus.reqLayer0.utilization               1.0                       # Layer utilization (%)
system.membus.respLayer1.occupancy           12660229                       # Layer occupancy (ticks)
system.membus.respLayer1.utilization              5.0                       # Layer utilization (%)
system.tol2bus.trans_dist::ReadReq              10148                       # Transaction distribution
system.tol2bus.trans_dist::ReadResp             10146                       # Transaction distribution
system.tol2bus.trans_dist::Writeback             6873                       # Transaction distribution
system.tol2bus.trans_dist::UpgradeReq              51                       # Transaction distribution
system.tol2bus.trans_dist::SCUpgradeReq            11                       # Transaction distribution
system.tol2bus.trans_dist::UpgradeResp             62                       # Transaction distribution
system.tol2bus.trans_dist::SCUpgradeFailReq            1                       # Transaction distribution
system.tol2bus.trans_dist::UpgradeFailResp            1                       # Transaction distribution
system.tol2bus.trans_dist::ReadExReq             6539                       # Transaction distribution
system.tol2bus.trans_dist::ReadExResp            6539                       # Transaction distribution
system.tol2bus.pkt_count_system.cpu0.icache.mem_side::system.l2.cpu_side         1312                       # Packet count per connected master and slave (bytes)
system.tol2bus.pkt_count_system.cpu0.dcache.mem_side::system.l2.cpu_side        14495                       # Packet count per connected master and slave (bytes)
system.tol2bus.pkt_count_system.cpu1.icache.mem_side::system.l2.cpu_side          104                       # Packet count per connected master and slave (bytes)
system.tol2bus.pkt_count_system.cpu1.dcache.mem_side::system.l2.cpu_side         5681                       # Packet count per connected master and slave (bytes)
system.tol2bus.pkt_count_system.cpu2.icache.mem_side::system.l2.cpu_side          100                       # Packet count per connected master and slave (bytes)
system.tol2bus.pkt_count_system.cpu2.dcache.mem_side::system.l2.cpu_side         5882                       # Packet count per connected master and slave (bytes)
system.tol2bus.pkt_count_system.cpu3.icache.mem_side::system.l2.cpu_side          100                       # Packet count per connected master and slave (bytes)
system.tol2bus.pkt_count_system.cpu3.dcache.mem_side::system.l2.cpu_side         5589                       # Packet count per connected master and slave (bytes)
system.tol2bus.pkt_count::total                 33263                       # Packet count per connected master and slave (bytes)
system.tol2bus.pkt_size_system.cpu0.icache.mem_side::system.l2.cpu_side        41920                       # Cumulative packet size per connected master and slave (bytes)
system.tol2bus.pkt_size_system.cpu0.dcache.mem_side::system.l2.cpu_side       574400                       # Cumulative packet size per connected master and slave (bytes)
system.tol2bus.pkt_size_system.cpu1.icache.mem_side::system.l2.cpu_side         3328                       # Cumulative packet size per connected master and slave (bytes)
system.tol2bus.pkt_size_system.cpu1.dcache.mem_side::system.l2.cpu_side       138560                       # Cumulative packet size per connected master and slave (bytes)
system.tol2bus.pkt_size_system.cpu2.icache.mem_side::system.l2.cpu_side         3200                       # Cumulative packet size per connected master and slave (bytes)
system.tol2bus.pkt_size_system.cpu2.dcache.mem_side::system.l2.cpu_side       153664                       # Cumulative packet size per connected master and slave (bytes)
system.tol2bus.pkt_size_system.cpu3.icache.mem_side::system.l2.cpu_side         3200                       # Cumulative packet size per connected master and slave (bytes)
system.tol2bus.pkt_size_system.cpu3.dcache.mem_side::system.l2.cpu_side       136576                       # Cumulative packet size per connected master and slave (bytes)
system.tol2bus.pkt_size::total                1054848                       # Cumulative packet size per connected master and slave (bytes)
system.tol2bus.snoops                            7108                       # Total snoops (count)
system.tol2bus.snoop_fanout::samples            23623                       # Request fanout histogram
system.tol2bus.snoop_fanout::mean                   7                       # Request fanout histogram
system.tol2bus.snoop_fanout::stdev                  0                       # Request fanout histogram
system.tol2bus.snoop_fanout::underflows             0      0.00%      0.00% # Request fanout histogram
system.tol2bus.snoop_fanout::0                      0      0.00%      0.00% # Request fanout histogram
system.tol2bus.snoop_fanout::1                      0      0.00%      0.00% # Request fanout histogram
system.tol2bus.snoop_fanout::2                      0      0.00%      0.00% # Request fanout histogram
system.tol2bus.snoop_fanout::3                      0      0.00%      0.00% # Request fanout histogram
system.tol2bus.snoop_fanout::4                      0      0.00%      0.00% # Request fanout histogram
system.tol2bus.snoop_fanout::5                      0      0.00%      0.00% # Request fanout histogram
system.tol2bus.snoop_fanout::6                      0      0.00%      0.00% # Request fanout histogram
system.tol2bus.snoop_fanout::7                  23623    100.00%    100.00% # Request fanout histogram
system.tol2bus.snoop_fanout::8                      0      0.00%    100.00% # Request fanout histogram
system.tol2bus.snoop_fanout::overflows              0      0.00%    100.00% # Request fanout histogram
system.tol2bus.snoop_fanout::min_value              7                       # Request fanout histogram
system.tol2bus.snoop_fanout::max_value              7                       # Request fanout histogram
system.tol2bus.snoop_fanout::total              23623                       # Request fanout histogram
system.tol2bus.reqLayer0.occupancy           18684500                       # Layer occupancy (ticks)
system.tol2bus.reqLayer0.utilization              7.3                       # Layer utilization (%)
system.tol2bus.respLayer0.occupancy           1087736                       # Layer occupancy (ticks)
system.tol2bus.respLayer0.utilization             0.4                       # Layer utilization (%)
system.tol2bus.respLayer1.occupancy           8567001                       # Layer occupancy (ticks)
system.tol2bus.respLayer1.utilization             3.4                       # Layer utilization (%)
system.tol2bus.respLayer4.occupancy             83482                       # Layer occupancy (ticks)
system.tol2bus.respLayer4.utilization             0.0                       # Layer utilization (%)
system.tol2bus.respLayer5.occupancy           5326608                       # Layer occupancy (ticks)
system.tol2bus.respLayer5.utilization             2.1                       # Layer utilization (%)
system.tol2bus.respLayer8.occupancy             81472                       # Layer occupancy (ticks)
system.tol2bus.respLayer8.utilization             0.0                       # Layer utilization (%)
system.tol2bus.respLayer9.occupancy           5264377                       # Layer occupancy (ticks)
system.tol2bus.respLayer9.utilization             2.1                       # Layer utilization (%)
system.tol2bus.respLayer12.occupancy            80724                       # Layer occupancy (ticks)
system.tol2bus.respLayer12.utilization            0.0                       # Layer utilization (%)
system.tol2bus.respLayer13.occupancy          5225380                       # Layer occupancy (ticks)
system.tol2bus.respLayer13.utilization            2.0                       # Layer utilization (%)

---------- End Simulation Statistics   ----------
