
---------- Begin Simulation Statistics ----------
sim_seconds                                  0.000114                       # Number of seconds simulated
sim_ticks                                   113751000                       # Number of ticks simulated
final_tick                                  113751000                       # Number of ticks from beginning of simulation (restored from checkpoints and never reset)
sim_freq                                 1000000000000                       # Frequency of simulated ticks
host_inst_rate                                 837926                       # Simulator instruction rate (inst/s)
host_op_rate                                   847922                       # Simulator op (including micro ops) rate (op/s)
host_tick_rate                               21046293                       # Simulator tick rate (ticks/s)
host_mem_usage                                 663576                       # Number of bytes of host memory used
host_seconds                                     5.40                       # Real time elapsed on the host
sim_insts                                     4528798                       # Number of instructions simulated
sim_ops                                       4582836                       # Number of ops (including micro ops) simulated
system.voltage_domain.voltage                       1                       # Voltage in Volts
system.clk_domain.clock                          1000                       # Clock period in ticks
system.mem_ctrls.bytes_read::cpu00.inst        787736                       # Number of bytes read from this memory
system.mem_ctrls.bytes_read::cpu00.data         89721                       # Number of bytes read from this memory
system.mem_ctrls.bytes_read::cpu01.inst        295264                       # Number of bytes read from this memory
system.mem_ctrls.bytes_read::cpu01.data         74034                       # Number of bytes read from this memory
system.mem_ctrls.bytes_read::cpu02.inst        294592                       # Number of bytes read from this memory
system.mem_ctrls.bytes_read::cpu02.data         73938                       # Number of bytes read from this memory
system.mem_ctrls.bytes_read::cpu03.inst        293920                       # Number of bytes read from this memory
system.mem_ctrls.bytes_read::cpu03.data         73854                       # Number of bytes read from this memory
system.mem_ctrls.bytes_read::cpu04.inst        293248                       # Number of bytes read from this memory
system.mem_ctrls.bytes_read::cpu04.data         73786                       # Number of bytes read from this memory
system.mem_ctrls.bytes_read::cpu05.inst        292576                       # Number of bytes read from this memory
system.mem_ctrls.bytes_read::cpu05.data         73722                       # Number of bytes read from this memory
system.mem_ctrls.bytes_read::cpu06.inst        292020                       # Number of bytes read from this memory
system.mem_ctrls.bytes_read::cpu06.data         73502                       # Number of bytes read from this memory
system.mem_ctrls.bytes_read::cpu07.inst        291348                       # Number of bytes read from this memory
system.mem_ctrls.bytes_read::cpu07.data         73426                       # Number of bytes read from this memory
system.mem_ctrls.bytes_read::cpu08.inst        290676                       # Number of bytes read from this memory
system.mem_ctrls.bytes_read::cpu08.data         73342                       # Number of bytes read from this memory
system.mem_ctrls.bytes_read::cpu09.inst        290004                       # Number of bytes read from this memory
system.mem_ctrls.bytes_read::cpu09.data         73262                       # Number of bytes read from this memory
system.mem_ctrls.bytes_read::cpu10.inst        289332                       # Number of bytes read from this memory
system.mem_ctrls.bytes_read::cpu10.data         73166                       # Number of bytes read from this memory
system.mem_ctrls.bytes_read::cpu11.inst        288776                       # Number of bytes read from this memory
system.mem_ctrls.bytes_read::cpu11.data         73034                       # Number of bytes read from this memory
system.mem_ctrls.bytes_read::cpu12.inst        288104                       # Number of bytes read from this memory
system.mem_ctrls.bytes_read::cpu12.data         72966                       # Number of bytes read from this memory
system.mem_ctrls.bytes_read::cpu13.inst        287432                       # Number of bytes read from this memory
system.mem_ctrls.bytes_read::cpu13.data         72886                       # Number of bytes read from this memory
system.mem_ctrls.bytes_read::cpu14.inst        286760                       # Number of bytes read from this memory
system.mem_ctrls.bytes_read::cpu14.data         72794                       # Number of bytes read from this memory
system.mem_ctrls.bytes_read::cpu15.inst        286088                       # Number of bytes read from this memory
system.mem_ctrls.bytes_read::cpu15.data         72710                       # Number of bytes read from this memory
system.mem_ctrls.bytes_read::cpu16.inst        285532                       # Number of bytes read from this memory
system.mem_ctrls.bytes_read::cpu16.data         72526                       # Number of bytes read from this memory
system.mem_ctrls.bytes_read::cpu17.inst        284860                       # Number of bytes read from this memory
system.mem_ctrls.bytes_read::cpu17.data         72442                       # Number of bytes read from this memory
system.mem_ctrls.bytes_read::cpu18.inst        284188                       # Number of bytes read from this memory
system.mem_ctrls.bytes_read::cpu18.data         72346                       # Number of bytes read from this memory
system.mem_ctrls.bytes_read::cpu19.inst        283516                       # Number of bytes read from this memory
system.mem_ctrls.bytes_read::cpu19.data         72274                       # Number of bytes read from this memory
system.mem_ctrls.bytes_read::cpu20.inst        282844                       # Number of bytes read from this memory
system.mem_ctrls.bytes_read::cpu20.data         72206                       # Number of bytes read from this memory
system.mem_ctrls.bytes_read::cpu21.inst        282208                       # Number of bytes read from this memory
system.mem_ctrls.bytes_read::cpu21.data         72018                       # Number of bytes read from this memory
system.mem_ctrls.bytes_read::cpu22.inst        281616                       # Number of bytes read from this memory
system.mem_ctrls.bytes_read::cpu22.data         71934                       # Number of bytes read from this memory
system.mem_ctrls.bytes_read::cpu23.inst        280944                       # Number of bytes read from this memory
system.mem_ctrls.bytes_read::cpu23.data         71838                       # Number of bytes read from this memory
system.mem_ctrls.bytes_read::cpu24.inst        280272                       # Number of bytes read from this memory
system.mem_ctrls.bytes_read::cpu24.data         71730                       # Number of bytes read from this memory
system.mem_ctrls.bytes_read::cpu25.inst        279600                       # Number of bytes read from this memory
system.mem_ctrls.bytes_read::cpu25.data         71674                       # Number of bytes read from this memory
system.mem_ctrls.bytes_read::cpu26.inst        278948                       # Number of bytes read from this memory
system.mem_ctrls.bytes_read::cpu26.data         71558                       # Number of bytes read from this memory
system.mem_ctrls.bytes_read::cpu27.inst        278372                       # Number of bytes read from this memory
system.mem_ctrls.bytes_read::cpu27.data         71414                       # Number of bytes read from this memory
system.mem_ctrls.bytes_read::cpu28.inst        277700                       # Number of bytes read from this memory
system.mem_ctrls.bytes_read::cpu28.data         71318                       # Number of bytes read from this memory
system.mem_ctrls.bytes_read::cpu29.inst        277028                       # Number of bytes read from this memory
system.mem_ctrls.bytes_read::cpu29.data         71246                       # Number of bytes read from this memory
system.mem_ctrls.bytes_read::cpu30.inst        276356                       # Number of bytes read from this memory
system.mem_ctrls.bytes_read::cpu30.data         71130                       # Number of bytes read from this memory
system.mem_ctrls.bytes_read::cpu31.inst        275684                       # Number of bytes read from this memory
system.mem_ctrls.bytes_read::cpu31.data         71038                       # Number of bytes read from this memory
system.mem_ctrls.bytes_read::cpu32.inst        275128                       # Number of bytes read from this memory
system.mem_ctrls.bytes_read::cpu32.data         70930                       # Number of bytes read from this memory
system.mem_ctrls.bytes_read::cpu33.inst        274456                       # Number of bytes read from this memory
system.mem_ctrls.bytes_read::cpu33.data         70838                       # Number of bytes read from this memory
system.mem_ctrls.bytes_read::cpu34.inst        273784                       # Number of bytes read from this memory
system.mem_ctrls.bytes_read::cpu34.data         70750                       # Number of bytes read from this memory
system.mem_ctrls.bytes_read::cpu35.inst        273112                       # Number of bytes read from this memory
system.mem_ctrls.bytes_read::cpu35.data         70662                       # Number of bytes read from this memory
system.mem_ctrls.bytes_read::cpu36.inst        272464                       # Number of bytes read from this memory
system.mem_ctrls.bytes_read::cpu36.data         70574                       # Number of bytes read from this memory
system.mem_ctrls.bytes_read::cpu37.inst        271844                       # Number of bytes read from this memory
system.mem_ctrls.bytes_read::cpu37.data         70386                       # Number of bytes read from this memory
system.mem_ctrls.bytes_read::cpu38.inst        271212                       # Number of bytes read from this memory
system.mem_ctrls.bytes_read::cpu38.data         70286                       # Number of bytes read from this memory
system.mem_ctrls.bytes_read::cpu39.inst        270540                       # Number of bytes read from this memory
system.mem_ctrls.bytes_read::cpu39.data         70222                       # Number of bytes read from this memory
system.mem_ctrls.bytes_read::cpu40.inst        269868                       # Number of bytes read from this memory
system.mem_ctrls.bytes_read::cpu40.data         70138                       # Number of bytes read from this memory
system.mem_ctrls.bytes_read::cpu41.inst        269196                       # Number of bytes read from this memory
system.mem_ctrls.bytes_read::cpu41.data         70006                       # Number of bytes read from this memory
system.mem_ctrls.bytes_read::cpu42.inst        268580                       # Number of bytes read from this memory
system.mem_ctrls.bytes_read::cpu42.data         69886                       # Number of bytes read from this memory
system.mem_ctrls.bytes_read::cpu43.inst        267968                       # Number of bytes read from this memory
system.mem_ctrls.bytes_read::cpu43.data         69774                       # Number of bytes read from this memory
system.mem_ctrls.bytes_read::cpu44.inst        267296                       # Number of bytes read from this memory
system.mem_ctrls.bytes_read::cpu44.data         69686                       # Number of bytes read from this memory
system.mem_ctrls.bytes_read::cpu45.inst        266624                       # Number of bytes read from this memory
system.mem_ctrls.bytes_read::cpu45.data         69602                       # Number of bytes read from this memory
system.mem_ctrls.bytes_read::cpu46.inst        265952                       # Number of bytes read from this memory
system.mem_ctrls.bytes_read::cpu46.data         69514                       # Number of bytes read from this memory
system.mem_ctrls.bytes_read::cpu47.inst        265280                       # Number of bytes read from this memory
system.mem_ctrls.bytes_read::cpu47.data         69434                       # Number of bytes read from this memory
system.mem_ctrls.bytes_read::cpu48.inst        264724                       # Number of bytes read from this memory
system.mem_ctrls.bytes_read::cpu48.data         69254                       # Number of bytes read from this memory
system.mem_ctrls.bytes_read::cpu49.inst        264052                       # Number of bytes read from this memory
system.mem_ctrls.bytes_read::cpu49.data         69174                       # Number of bytes read from this memory
system.mem_ctrls.bytes_read::cpu50.inst        263380                       # Number of bytes read from this memory
system.mem_ctrls.bytes_read::cpu50.data         69086                       # Number of bytes read from this memory
system.mem_ctrls.bytes_read::cpu51.inst        262692                       # Number of bytes read from this memory
system.mem_ctrls.bytes_read::cpu51.data         69038                       # Number of bytes read from this memory
system.mem_ctrls.bytes_read::cpu52.inst        262036                       # Number of bytes read from this memory
system.mem_ctrls.bytes_read::cpu52.data         68914                       # Number of bytes read from this memory
system.mem_ctrls.bytes_read::cpu53.inst        261480                       # Number of bytes read from this memory
system.mem_ctrls.bytes_read::cpu53.data         68762                       # Number of bytes read from this memory
system.mem_ctrls.bytes_read::cpu54.inst        260808                       # Number of bytes read from this memory
system.mem_ctrls.bytes_read::cpu54.data         68678                       # Number of bytes read from this memory
system.mem_ctrls.bytes_read::cpu55.inst        260136                       # Number of bytes read from this memory
system.mem_ctrls.bytes_read::cpu55.data         68590                       # Number of bytes read from this memory
system.mem_ctrls.bytes_read::cpu56.inst        259464                       # Number of bytes read from this memory
system.mem_ctrls.bytes_read::cpu56.data         68526                       # Number of bytes read from this memory
system.mem_ctrls.bytes_read::cpu57.inst        258792                       # Number of bytes read from this memory
system.mem_ctrls.bytes_read::cpu57.data         68386                       # Number of bytes read from this memory
system.mem_ctrls.bytes_read::cpu58.inst        258156                       # Number of bytes read from this memory
system.mem_ctrls.bytes_read::cpu58.data         68274                       # Number of bytes read from this memory
system.mem_ctrls.bytes_read::cpu59.inst        257564                       # Number of bytes read from this memory
system.mem_ctrls.bytes_read::cpu59.data         68186                       # Number of bytes read from this memory
system.mem_ctrls.bytes_read::cpu60.inst        256892                       # Number of bytes read from this memory
system.mem_ctrls.bytes_read::cpu60.data         68098                       # Number of bytes read from this memory
system.mem_ctrls.bytes_read::cpu61.inst        256220                       # Number of bytes read from this memory
system.mem_ctrls.bytes_read::cpu61.data         68022                       # Number of bytes read from this memory
system.mem_ctrls.bytes_read::cpu62.inst        255548                       # Number of bytes read from this memory
system.mem_ctrls.bytes_read::cpu62.data         67922                       # Number of bytes read from this memory
system.mem_ctrls.bytes_read::cpu63.inst        254860                       # Number of bytes read from this memory
system.mem_ctrls.bytes_read::cpu63.data         67794                       # Number of bytes read from this memory
system.mem_ctrls.bytes_read::total           22675879                       # Number of bytes read from this memory
system.mem_ctrls.bytes_inst_read::cpu00.inst       787736                       # Number of instructions bytes read from this memory
system.mem_ctrls.bytes_inst_read::cpu01.inst       295264                       # Number of instructions bytes read from this memory
system.mem_ctrls.bytes_inst_read::cpu02.inst       294592                       # Number of instructions bytes read from this memory
system.mem_ctrls.bytes_inst_read::cpu03.inst       293920                       # Number of instructions bytes read from this memory
system.mem_ctrls.bytes_inst_read::cpu04.inst       293248                       # Number of instructions bytes read from this memory
system.mem_ctrls.bytes_inst_read::cpu05.inst       292576                       # Number of instructions bytes read from this memory
system.mem_ctrls.bytes_inst_read::cpu06.inst       292020                       # Number of instructions bytes read from this memory
system.mem_ctrls.bytes_inst_read::cpu07.inst       291348                       # Number of instructions bytes read from this memory
system.mem_ctrls.bytes_inst_read::cpu08.inst       290676                       # Number of instructions bytes read from this memory
system.mem_ctrls.bytes_inst_read::cpu09.inst       290004                       # Number of instructions bytes read from this memory
system.mem_ctrls.bytes_inst_read::cpu10.inst       289332                       # Number of instructions bytes read from this memory
system.mem_ctrls.bytes_inst_read::cpu11.inst       288776                       # Number of instructions bytes read from this memory
system.mem_ctrls.bytes_inst_read::cpu12.inst       288104                       # Number of instructions bytes read from this memory
system.mem_ctrls.bytes_inst_read::cpu13.inst       287432                       # Number of instructions bytes read from this memory
system.mem_ctrls.bytes_inst_read::cpu14.inst       286760                       # Number of instructions bytes read from this memory
system.mem_ctrls.bytes_inst_read::cpu15.inst       286088                       # Number of instructions bytes read from this memory
system.mem_ctrls.bytes_inst_read::cpu16.inst       285532                       # Number of instructions bytes read from this memory
system.mem_ctrls.bytes_inst_read::cpu17.inst       284860                       # Number of instructions bytes read from this memory
system.mem_ctrls.bytes_inst_read::cpu18.inst       284188                       # Number of instructions bytes read from this memory
system.mem_ctrls.bytes_inst_read::cpu19.inst       283516                       # Number of instructions bytes read from this memory
system.mem_ctrls.bytes_inst_read::cpu20.inst       282844                       # Number of instructions bytes read from this memory
system.mem_ctrls.bytes_inst_read::cpu21.inst       282208                       # Number of instructions bytes read from this memory
system.mem_ctrls.bytes_inst_read::cpu22.inst       281616                       # Number of instructions bytes read from this memory
system.mem_ctrls.bytes_inst_read::cpu23.inst       280944                       # Number of instructions bytes read from this memory
system.mem_ctrls.bytes_inst_read::cpu24.inst       280272                       # Number of instructions bytes read from this memory
system.mem_ctrls.bytes_inst_read::cpu25.inst       279600                       # Number of instructions bytes read from this memory
system.mem_ctrls.bytes_inst_read::cpu26.inst       278948                       # Number of instructions bytes read from this memory
system.mem_ctrls.bytes_inst_read::cpu27.inst       278372                       # Number of instructions bytes read from this memory
system.mem_ctrls.bytes_inst_read::cpu28.inst       277700                       # Number of instructions bytes read from this memory
system.mem_ctrls.bytes_inst_read::cpu29.inst       277028                       # Number of instructions bytes read from this memory
system.mem_ctrls.bytes_inst_read::cpu30.inst       276356                       # Number of instructions bytes read from this memory
system.mem_ctrls.bytes_inst_read::cpu31.inst       275684                       # Number of instructions bytes read from this memory
system.mem_ctrls.bytes_inst_read::cpu32.inst       275128                       # Number of instructions bytes read from this memory
system.mem_ctrls.bytes_inst_read::cpu33.inst       274456                       # Number of instructions bytes read from this memory
system.mem_ctrls.bytes_inst_read::cpu34.inst       273784                       # Number of instructions bytes read from this memory
system.mem_ctrls.bytes_inst_read::cpu35.inst       273112                       # Number of instructions bytes read from this memory
system.mem_ctrls.bytes_inst_read::cpu36.inst       272464                       # Number of instructions bytes read from this memory
system.mem_ctrls.bytes_inst_read::cpu37.inst       271844                       # Number of instructions bytes read from this memory
system.mem_ctrls.bytes_inst_read::cpu38.inst       271212                       # Number of instructions bytes read from this memory
system.mem_ctrls.bytes_inst_read::cpu39.inst       270540                       # Number of instructions bytes read from this memory
system.mem_ctrls.bytes_inst_read::cpu40.inst       269868                       # Number of instructions bytes read from this memory
system.mem_ctrls.bytes_inst_read::cpu41.inst       269196                       # Number of instructions bytes read from this memory
system.mem_ctrls.bytes_inst_read::cpu42.inst       268580                       # Number of instructions bytes read from this memory
system.mem_ctrls.bytes_inst_read::cpu43.inst       267968                       # Number of instructions bytes read from this memory
system.mem_ctrls.bytes_inst_read::cpu44.inst       267296                       # Number of instructions bytes read from this memory
system.mem_ctrls.bytes_inst_read::cpu45.inst       266624                       # Number of instructions bytes read from this memory
system.mem_ctrls.bytes_inst_read::cpu46.inst       265952                       # Number of instructions bytes read from this memory
system.mem_ctrls.bytes_inst_read::cpu47.inst       265280                       # Number of instructions bytes read from this memory
system.mem_ctrls.bytes_inst_read::cpu48.inst       264724                       # Number of instructions bytes read from this memory
system.mem_ctrls.bytes_inst_read::cpu49.inst       264052                       # Number of instructions bytes read from this memory
system.mem_ctrls.bytes_inst_read::cpu50.inst       263380                       # Number of instructions bytes read from this memory
system.mem_ctrls.bytes_inst_read::cpu51.inst       262692                       # Number of instructions bytes read from this memory
system.mem_ctrls.bytes_inst_read::cpu52.inst       262036                       # Number of instructions bytes read from this memory
system.mem_ctrls.bytes_inst_read::cpu53.inst       261480                       # Number of instructions bytes read from this memory
system.mem_ctrls.bytes_inst_read::cpu54.inst       260808                       # Number of instructions bytes read from this memory
system.mem_ctrls.bytes_inst_read::cpu55.inst       260136                       # Number of instructions bytes read from this memory
system.mem_ctrls.bytes_inst_read::cpu56.inst       259464                       # Number of instructions bytes read from this memory
system.mem_ctrls.bytes_inst_read::cpu57.inst       258792                       # Number of instructions bytes read from this memory
system.mem_ctrls.bytes_inst_read::cpu58.inst       258156                       # Number of instructions bytes read from this memory
system.mem_ctrls.bytes_inst_read::cpu59.inst       257564                       # Number of instructions bytes read from this memory
system.mem_ctrls.bytes_inst_read::cpu60.inst       256892                       # Number of instructions bytes read from this memory
system.mem_ctrls.bytes_inst_read::cpu61.inst       256220                       # Number of instructions bytes read from this memory
system.mem_ctrls.bytes_inst_read::cpu62.inst       255548                       # Number of instructions bytes read from this memory
system.mem_ctrls.bytes_inst_read::cpu63.inst       254860                       # Number of instructions bytes read from this memory
system.mem_ctrls.bytes_inst_read::total      18117652                       # Number of instructions bytes read from this memory
system.mem_ctrls.bytes_written::cpu00.data       190793                       # Number of bytes written to this memory
system.mem_ctrls.bytes_written::cpu01.data         2020                       # Number of bytes written to this memory
system.mem_ctrls.bytes_written::cpu02.data         2020                       # Number of bytes written to this memory
system.mem_ctrls.bytes_written::cpu03.data         2020                       # Number of bytes written to this memory
system.mem_ctrls.bytes_written::cpu04.data         2020                       # Number of bytes written to this memory
system.mem_ctrls.bytes_written::cpu05.data         2020                       # Number of bytes written to this memory
system.mem_ctrls.bytes_written::cpu06.data         1948                       # Number of bytes written to this memory
system.mem_ctrls.bytes_written::cpu07.data         1948                       # Number of bytes written to this memory
system.mem_ctrls.bytes_written::cpu08.data         1948                       # Number of bytes written to this memory
system.mem_ctrls.bytes_written::cpu09.data         1948                       # Number of bytes written to this memory
system.mem_ctrls.bytes_written::cpu10.data         1948                       # Number of bytes written to this memory
system.mem_ctrls.bytes_written::cpu11.data         1876                       # Number of bytes written to this memory
system.mem_ctrls.bytes_written::cpu12.data         1876                       # Number of bytes written to this memory
system.mem_ctrls.bytes_written::cpu13.data         1876                       # Number of bytes written to this memory
system.mem_ctrls.bytes_written::cpu14.data         1876                       # Number of bytes written to this memory
system.mem_ctrls.bytes_written::cpu15.data         1876                       # Number of bytes written to this memory
system.mem_ctrls.bytes_written::cpu16.data         1804                       # Number of bytes written to this memory
system.mem_ctrls.bytes_written::cpu17.data         1804                       # Number of bytes written to this memory
system.mem_ctrls.bytes_written::cpu18.data         1804                       # Number of bytes written to this memory
system.mem_ctrls.bytes_written::cpu19.data         1804                       # Number of bytes written to this memory
system.mem_ctrls.bytes_written::cpu20.data         1804                       # Number of bytes written to this memory
system.mem_ctrls.bytes_written::cpu21.data         1784                       # Number of bytes written to this memory
system.mem_ctrls.bytes_written::cpu22.data         1732                       # Number of bytes written to this memory
system.mem_ctrls.bytes_written::cpu23.data         1732                       # Number of bytes written to this memory
system.mem_ctrls.bytes_written::cpu24.data         1732                       # Number of bytes written to this memory
system.mem_ctrls.bytes_written::cpu25.data         1732                       # Number of bytes written to this memory
system.mem_ctrls.bytes_written::cpu26.data         1716                       # Number of bytes written to this memory
system.mem_ctrls.bytes_written::cpu27.data         1660                       # Number of bytes written to this memory
system.mem_ctrls.bytes_written::cpu28.data         1660                       # Number of bytes written to this memory
system.mem_ctrls.bytes_written::cpu29.data         1660                       # Number of bytes written to this memory
system.mem_ctrls.bytes_written::cpu30.data         1660                       # Number of bytes written to this memory
system.mem_ctrls.bytes_written::cpu31.data         1660                       # Number of bytes written to this memory
system.mem_ctrls.bytes_written::cpu32.data         1588                       # Number of bytes written to this memory
system.mem_ctrls.bytes_written::cpu33.data         1588                       # Number of bytes written to this memory
system.mem_ctrls.bytes_written::cpu34.data         1588                       # Number of bytes written to this memory
system.mem_ctrls.bytes_written::cpu35.data         1588                       # Number of bytes written to this memory
system.mem_ctrls.bytes_written::cpu36.data         1568                       # Number of bytes written to this memory
system.mem_ctrls.bytes_written::cpu37.data         1548                       # Number of bytes written to this memory
system.mem_ctrls.bytes_written::cpu38.data         1516                       # Number of bytes written to this memory
system.mem_ctrls.bytes_written::cpu39.data         1516                       # Number of bytes written to this memory
system.mem_ctrls.bytes_written::cpu40.data         1516                       # Number of bytes written to this memory
system.mem_ctrls.bytes_written::cpu41.data         1516                       # Number of bytes written to this memory
system.mem_ctrls.bytes_written::cpu42.data         1476                       # Number of bytes written to this memory
system.mem_ctrls.bytes_written::cpu43.data         1444                       # Number of bytes written to this memory
system.mem_ctrls.bytes_written::cpu44.data         1444                       # Number of bytes written to this memory
system.mem_ctrls.bytes_written::cpu45.data         1444                       # Number of bytes written to this memory
system.mem_ctrls.bytes_written::cpu46.data         1444                       # Number of bytes written to this memory
system.mem_ctrls.bytes_written::cpu47.data         1444                       # Number of bytes written to this memory
system.mem_ctrls.bytes_written::cpu48.data         1372                       # Number of bytes written to this memory
system.mem_ctrls.bytes_written::cpu49.data         1372                       # Number of bytes written to this memory
system.mem_ctrls.bytes_written::cpu50.data         1372                       # Number of bytes written to this memory
system.mem_ctrls.bytes_written::cpu51.data         1392                       # Number of bytes written to this memory
system.mem_ctrls.bytes_written::cpu52.data         1372                       # Number of bytes written to this memory
system.mem_ctrls.bytes_written::cpu53.data         1300                       # Number of bytes written to this memory
system.mem_ctrls.bytes_written::cpu54.data         1300                       # Number of bytes written to this memory
system.mem_ctrls.bytes_written::cpu55.data         1300                       # Number of bytes written to this memory
system.mem_ctrls.bytes_written::cpu56.data         1300                       # Number of bytes written to this memory
system.mem_ctrls.bytes_written::cpu57.data         1300                       # Number of bytes written to this memory
system.mem_ctrls.bytes_written::cpu58.data         1280                       # Number of bytes written to this memory
system.mem_ctrls.bytes_written::cpu59.data         1228                       # Number of bytes written to this memory
system.mem_ctrls.bytes_written::cpu60.data         1228                       # Number of bytes written to this memory
system.mem_ctrls.bytes_written::cpu61.data         1228                       # Number of bytes written to this memory
system.mem_ctrls.bytes_written::cpu62.data         1228                       # Number of bytes written to this memory
system.mem_ctrls.bytes_written::cpu63.data         1248                       # Number of bytes written to this memory
system.mem_ctrls.bytes_written::total          292809                       # Number of bytes written to this memory
system.mem_ctrls.num_reads::cpu00.inst         196934                       # Number of read requests responded to by this memory
system.mem_ctrls.num_reads::cpu00.data          21615                       # Number of read requests responded to by this memory
system.mem_ctrls.num_reads::cpu01.inst          73816                       # Number of read requests responded to by this memory
system.mem_ctrls.num_reads::cpu01.data          18336                       # Number of read requests responded to by this memory
system.mem_ctrls.num_reads::cpu02.inst          73648                       # Number of read requests responded to by this memory
system.mem_ctrls.num_reads::cpu02.data          18313                       # Number of read requests responded to by this memory
system.mem_ctrls.num_reads::cpu03.inst          73480                       # Number of read requests responded to by this memory
system.mem_ctrls.num_reads::cpu03.data          18291                       # Number of read requests responded to by this memory
system.mem_ctrls.num_reads::cpu04.inst          73312                       # Number of read requests responded to by this memory
system.mem_ctrls.num_reads::cpu04.data          18275                       # Number of read requests responded to by this memory
system.mem_ctrls.num_reads::cpu05.inst          73144                       # Number of read requests responded to by this memory
system.mem_ctrls.num_reads::cpu05.data          18258                       # Number of read requests responded to by this memory
system.mem_ctrls.num_reads::cpu06.inst          73005                       # Number of read requests responded to by this memory
system.mem_ctrls.num_reads::cpu06.data          18215                       # Number of read requests responded to by this memory
system.mem_ctrls.num_reads::cpu07.inst          72837                       # Number of read requests responded to by this memory
system.mem_ctrls.num_reads::cpu07.data          18196                       # Number of read requests responded to by this memory
system.mem_ctrls.num_reads::cpu08.inst          72669                       # Number of read requests responded to by this memory
system.mem_ctrls.num_reads::cpu08.data          18176                       # Number of read requests responded to by this memory
system.mem_ctrls.num_reads::cpu09.inst          72501                       # Number of read requests responded to by this memory
system.mem_ctrls.num_reads::cpu09.data          18155                       # Number of read requests responded to by this memory
system.mem_ctrls.num_reads::cpu10.inst          72333                       # Number of read requests responded to by this memory
system.mem_ctrls.num_reads::cpu10.data          18131                       # Number of read requests responded to by this memory
system.mem_ctrls.num_reads::cpu11.inst          72194                       # Number of read requests responded to by this memory
system.mem_ctrls.num_reads::cpu11.data          18110                       # Number of read requests responded to by this memory
system.mem_ctrls.num_reads::cpu12.inst          72026                       # Number of read requests responded to by this memory
system.mem_ctrls.num_reads::cpu12.data          18094                       # Number of read requests responded to by this memory
system.mem_ctrls.num_reads::cpu13.inst          71858                       # Number of read requests responded to by this memory
system.mem_ctrls.num_reads::cpu13.data          18073                       # Number of read requests responded to by this memory
system.mem_ctrls.num_reads::cpu14.inst          71690                       # Number of read requests responded to by this memory
system.mem_ctrls.num_reads::cpu14.data          18051                       # Number of read requests responded to by this memory
system.mem_ctrls.num_reads::cpu15.inst          71522                       # Number of read requests responded to by this memory
system.mem_ctrls.num_reads::cpu15.data          18029                       # Number of read requests responded to by this memory
system.mem_ctrls.num_reads::cpu16.inst          71383                       # Number of read requests responded to by this memory
system.mem_ctrls.num_reads::cpu16.data          17995                       # Number of read requests responded to by this memory
system.mem_ctrls.num_reads::cpu17.inst          71215                       # Number of read requests responded to by this memory
system.mem_ctrls.num_reads::cpu17.data          17974                       # Number of read requests responded to by this memory
system.mem_ctrls.num_reads::cpu18.inst          71047                       # Number of read requests responded to by this memory
system.mem_ctrls.num_reads::cpu18.data          17951                       # Number of read requests responded to by this memory
system.mem_ctrls.num_reads::cpu19.inst          70879                       # Number of read requests responded to by this memory
system.mem_ctrls.num_reads::cpu19.data          17932                       # Number of read requests responded to by this memory
system.mem_ctrls.num_reads::cpu20.inst          70711                       # Number of read requests responded to by this memory
system.mem_ctrls.num_reads::cpu20.data          17916                       # Number of read requests responded to by this memory
system.mem_ctrls.num_reads::cpu21.inst          70552                       # Number of read requests responded to by this memory
system.mem_ctrls.num_reads::cpu21.data          17872                       # Number of read requests responded to by this memory
system.mem_ctrls.num_reads::cpu22.inst          70404                       # Number of read requests responded to by this memory
system.mem_ctrls.num_reads::cpu22.data          17859                       # Number of read requests responded to by this memory
system.mem_ctrls.num_reads::cpu23.inst          70236                       # Number of read requests responded to by this memory
system.mem_ctrls.num_reads::cpu23.data          17835                       # Number of read requests responded to by this memory
system.mem_ctrls.num_reads::cpu24.inst          70068                       # Number of read requests responded to by this memory
system.mem_ctrls.num_reads::cpu24.data          17809                       # Number of read requests responded to by this memory
system.mem_ctrls.num_reads::cpu25.inst          69900                       # Number of read requests responded to by this memory
system.mem_ctrls.num_reads::cpu25.data          17795                       # Number of read requests responded to by this memory
system.mem_ctrls.num_reads::cpu26.inst          69737                       # Number of read requests responded to by this memory
system.mem_ctrls.num_reads::cpu26.data          17767                       # Number of read requests responded to by this memory
system.mem_ctrls.num_reads::cpu27.inst          69593                       # Number of read requests responded to by this memory
system.mem_ctrls.num_reads::cpu27.data          17741                       # Number of read requests responded to by this memory
system.mem_ctrls.num_reads::cpu28.inst          69425                       # Number of read requests responded to by this memory
system.mem_ctrls.num_reads::cpu28.data          17718                       # Number of read requests responded to by this memory
system.mem_ctrls.num_reads::cpu29.inst          69257                       # Number of read requests responded to by this memory
system.mem_ctrls.num_reads::cpu29.data          17699                       # Number of read requests responded to by this memory
system.mem_ctrls.num_reads::cpu30.inst          69089                       # Number of read requests responded to by this memory
system.mem_ctrls.num_reads::cpu30.data          17671                       # Number of read requests responded to by this memory
system.mem_ctrls.num_reads::cpu31.inst          68921                       # Number of read requests responded to by this memory
system.mem_ctrls.num_reads::cpu31.data          17647                       # Number of read requests responded to by this memory
system.mem_ctrls.num_reads::cpu32.inst          68782                       # Number of read requests responded to by this memory
system.mem_ctrls.num_reads::cpu32.data          17632                       # Number of read requests responded to by this memory
system.mem_ctrls.num_reads::cpu33.inst          68614                       # Number of read requests responded to by this memory
system.mem_ctrls.num_reads::cpu33.data          17609                       # Number of read requests responded to by this memory
system.mem_ctrls.num_reads::cpu34.inst          68446                       # Number of read requests responded to by this memory
system.mem_ctrls.num_reads::cpu34.data          17588                       # Number of read requests responded to by this memory
system.mem_ctrls.num_reads::cpu35.inst          68278                       # Number of read requests responded to by this memory
system.mem_ctrls.num_reads::cpu35.data          17565                       # Number of read requests responded to by this memory
system.mem_ctrls.num_reads::cpu36.inst          68116                       # Number of read requests responded to by this memory
system.mem_ctrls.num_reads::cpu36.data          17546                       # Number of read requests responded to by this memory
system.mem_ctrls.num_reads::cpu37.inst          67961                       # Number of read requests responded to by this memory
system.mem_ctrls.num_reads::cpu37.data          17506                       # Number of read requests responded to by this memory
system.mem_ctrls.num_reads::cpu38.inst          67803                       # Number of read requests responded to by this memory
system.mem_ctrls.num_reads::cpu38.data          17483                       # Number of read requests responded to by this memory
system.mem_ctrls.num_reads::cpu39.inst          67635                       # Number of read requests responded to by this memory
system.mem_ctrls.num_reads::cpu39.data          17467                       # Number of read requests responded to by this memory
system.mem_ctrls.num_reads::cpu40.inst          67467                       # Number of read requests responded to by this memory
system.mem_ctrls.num_reads::cpu40.data          17447                       # Number of read requests responded to by this memory
system.mem_ctrls.num_reads::cpu41.inst          67299                       # Number of read requests responded to by this memory
system.mem_ctrls.num_reads::cpu41.data          17413                       # Number of read requests responded to by this memory
system.mem_ctrls.num_reads::cpu42.inst          67145                       # Number of read requests responded to by this memory
system.mem_ctrls.num_reads::cpu42.data          17389                       # Number of read requests responded to by this memory
system.mem_ctrls.num_reads::cpu43.inst          66992                       # Number of read requests responded to by this memory
system.mem_ctrls.num_reads::cpu43.data          17367                       # Number of read requests responded to by this memory
system.mem_ctrls.num_reads::cpu44.inst          66824                       # Number of read requests responded to by this memory
system.mem_ctrls.num_reads::cpu44.data          17346                       # Number of read requests responded to by this memory
system.mem_ctrls.num_reads::cpu45.inst          66656                       # Number of read requests responded to by this memory
system.mem_ctrls.num_reads::cpu45.data          17324                       # Number of read requests responded to by this memory
system.mem_ctrls.num_reads::cpu46.inst          66488                       # Number of read requests responded to by this memory
system.mem_ctrls.num_reads::cpu46.data          17303                       # Number of read requests responded to by this memory
system.mem_ctrls.num_reads::cpu47.inst          66320                       # Number of read requests responded to by this memory
system.mem_ctrls.num_reads::cpu47.data          17282                       # Number of read requests responded to by this memory
system.mem_ctrls.num_reads::cpu48.inst          66181                       # Number of read requests responded to by this memory
system.mem_ctrls.num_reads::cpu48.data          17249                       # Number of read requests responded to by this memory
system.mem_ctrls.num_reads::cpu49.inst          66013                       # Number of read requests responded to by this memory
system.mem_ctrls.num_reads::cpu49.data          17229                       # Number of read requests responded to by this memory
system.mem_ctrls.num_reads::cpu50.inst          65845                       # Number of read requests responded to by this memory
system.mem_ctrls.num_reads::cpu50.data          17208                       # Number of read requests responded to by this memory
system.mem_ctrls.num_reads::cpu51.inst          65673                       # Number of read requests responded to by this memory
system.mem_ctrls.num_reads::cpu51.data          17193                       # Number of read requests responded to by this memory
system.mem_ctrls.num_reads::cpu52.inst          65509                       # Number of read requests responded to by this memory
system.mem_ctrls.num_reads::cpu52.data          17167                       # Number of read requests responded to by this memory
system.mem_ctrls.num_reads::cpu53.inst          65370                       # Number of read requests responded to by this memory
system.mem_ctrls.num_reads::cpu53.data          17138                       # Number of read requests responded to by this memory
system.mem_ctrls.num_reads::cpu54.inst          65202                       # Number of read requests responded to by this memory
system.mem_ctrls.num_reads::cpu54.data          17117                       # Number of read requests responded to by this memory
system.mem_ctrls.num_reads::cpu55.inst          65034                       # Number of read requests responded to by this memory
system.mem_ctrls.num_reads::cpu55.data          17095                       # Number of read requests responded to by this memory
system.mem_ctrls.num_reads::cpu56.inst          64866                       # Number of read requests responded to by this memory
system.mem_ctrls.num_reads::cpu56.data          17080                       # Number of read requests responded to by this memory
system.mem_ctrls.num_reads::cpu57.inst          64698                       # Number of read requests responded to by this memory
system.mem_ctrls.num_reads::cpu57.data          17044                       # Number of read requests responded to by this memory
system.mem_ctrls.num_reads::cpu58.inst          64539                       # Number of read requests responded to by this memory
system.mem_ctrls.num_reads::cpu58.data          17020                       # Number of read requests responded to by this memory
system.mem_ctrls.num_reads::cpu59.inst          64391                       # Number of read requests responded to by this memory
system.mem_ctrls.num_reads::cpu59.data          17006                       # Number of read requests responded to by this memory
system.mem_ctrls.num_reads::cpu60.inst          64223                       # Number of read requests responded to by this memory
system.mem_ctrls.num_reads::cpu60.data          16985                       # Number of read requests responded to by this memory
system.mem_ctrls.num_reads::cpu61.inst          64055                       # Number of read requests responded to by this memory
system.mem_ctrls.num_reads::cpu61.data          16965                       # Number of read requests responded to by this memory
system.mem_ctrls.num_reads::cpu62.inst          63887                       # Number of read requests responded to by this memory
system.mem_ctrls.num_reads::cpu62.data          16941                       # Number of read requests responded to by this memory
system.mem_ctrls.num_reads::cpu63.inst          63715                       # Number of read requests responded to by this memory
system.mem_ctrls.num_reads::cpu63.data          16906                       # Number of read requests responded to by this memory
system.mem_ctrls.num_reads::total             5661522                       # Number of read requests responded to by this memory
system.mem_ctrls.num_writes::cpu00.data         47977                       # Number of write requests responded to by this memory
system.mem_ctrls.num_writes::cpu01.data           505                       # Number of write requests responded to by this memory
system.mem_ctrls.num_writes::cpu02.data           505                       # Number of write requests responded to by this memory
system.mem_ctrls.num_writes::cpu03.data           505                       # Number of write requests responded to by this memory
system.mem_ctrls.num_writes::cpu04.data           505                       # Number of write requests responded to by this memory
system.mem_ctrls.num_writes::cpu05.data           505                       # Number of write requests responded to by this memory
system.mem_ctrls.num_writes::cpu06.data           487                       # Number of write requests responded to by this memory
system.mem_ctrls.num_writes::cpu07.data           487                       # Number of write requests responded to by this memory
system.mem_ctrls.num_writes::cpu08.data           487                       # Number of write requests responded to by this memory
system.mem_ctrls.num_writes::cpu09.data           487                       # Number of write requests responded to by this memory
system.mem_ctrls.num_writes::cpu10.data           487                       # Number of write requests responded to by this memory
system.mem_ctrls.num_writes::cpu11.data           469                       # Number of write requests responded to by this memory
system.mem_ctrls.num_writes::cpu12.data           469                       # Number of write requests responded to by this memory
system.mem_ctrls.num_writes::cpu13.data           469                       # Number of write requests responded to by this memory
system.mem_ctrls.num_writes::cpu14.data           469                       # Number of write requests responded to by this memory
system.mem_ctrls.num_writes::cpu15.data           469                       # Number of write requests responded to by this memory
system.mem_ctrls.num_writes::cpu16.data           451                       # Number of write requests responded to by this memory
system.mem_ctrls.num_writes::cpu17.data           451                       # Number of write requests responded to by this memory
system.mem_ctrls.num_writes::cpu18.data           451                       # Number of write requests responded to by this memory
system.mem_ctrls.num_writes::cpu19.data           451                       # Number of write requests responded to by this memory
system.mem_ctrls.num_writes::cpu20.data           451                       # Number of write requests responded to by this memory
system.mem_ctrls.num_writes::cpu21.data           446                       # Number of write requests responded to by this memory
system.mem_ctrls.num_writes::cpu22.data           433                       # Number of write requests responded to by this memory
system.mem_ctrls.num_writes::cpu23.data           433                       # Number of write requests responded to by this memory
system.mem_ctrls.num_writes::cpu24.data           433                       # Number of write requests responded to by this memory
system.mem_ctrls.num_writes::cpu25.data           433                       # Number of write requests responded to by this memory
system.mem_ctrls.num_writes::cpu26.data           429                       # Number of write requests responded to by this memory
system.mem_ctrls.num_writes::cpu27.data           415                       # Number of write requests responded to by this memory
system.mem_ctrls.num_writes::cpu28.data           415                       # Number of write requests responded to by this memory
system.mem_ctrls.num_writes::cpu29.data           415                       # Number of write requests responded to by this memory
system.mem_ctrls.num_writes::cpu30.data           415                       # Number of write requests responded to by this memory
system.mem_ctrls.num_writes::cpu31.data           415                       # Number of write requests responded to by this memory
system.mem_ctrls.num_writes::cpu32.data           397                       # Number of write requests responded to by this memory
system.mem_ctrls.num_writes::cpu33.data           397                       # Number of write requests responded to by this memory
system.mem_ctrls.num_writes::cpu34.data           397                       # Number of write requests responded to by this memory
system.mem_ctrls.num_writes::cpu35.data           397                       # Number of write requests responded to by this memory
system.mem_ctrls.num_writes::cpu36.data           392                       # Number of write requests responded to by this memory
system.mem_ctrls.num_writes::cpu37.data           387                       # Number of write requests responded to by this memory
system.mem_ctrls.num_writes::cpu38.data           379                       # Number of write requests responded to by this memory
system.mem_ctrls.num_writes::cpu39.data           379                       # Number of write requests responded to by this memory
system.mem_ctrls.num_writes::cpu40.data           379                       # Number of write requests responded to by this memory
system.mem_ctrls.num_writes::cpu41.data           379                       # Number of write requests responded to by this memory
system.mem_ctrls.num_writes::cpu42.data           369                       # Number of write requests responded to by this memory
system.mem_ctrls.num_writes::cpu43.data           361                       # Number of write requests responded to by this memory
system.mem_ctrls.num_writes::cpu44.data           361                       # Number of write requests responded to by this memory
system.mem_ctrls.num_writes::cpu45.data           361                       # Number of write requests responded to by this memory
system.mem_ctrls.num_writes::cpu46.data           361                       # Number of write requests responded to by this memory
system.mem_ctrls.num_writes::cpu47.data           361                       # Number of write requests responded to by this memory
system.mem_ctrls.num_writes::cpu48.data           343                       # Number of write requests responded to by this memory
system.mem_ctrls.num_writes::cpu49.data           343                       # Number of write requests responded to by this memory
system.mem_ctrls.num_writes::cpu50.data           343                       # Number of write requests responded to by this memory
system.mem_ctrls.num_writes::cpu51.data           348                       # Number of write requests responded to by this memory
system.mem_ctrls.num_writes::cpu52.data           343                       # Number of write requests responded to by this memory
system.mem_ctrls.num_writes::cpu53.data           325                       # Number of write requests responded to by this memory
system.mem_ctrls.num_writes::cpu54.data           325                       # Number of write requests responded to by this memory
system.mem_ctrls.num_writes::cpu55.data           325                       # Number of write requests responded to by this memory
system.mem_ctrls.num_writes::cpu56.data           325                       # Number of write requests responded to by this memory
system.mem_ctrls.num_writes::cpu57.data           325                       # Number of write requests responded to by this memory
system.mem_ctrls.num_writes::cpu58.data           320                       # Number of write requests responded to by this memory
system.mem_ctrls.num_writes::cpu59.data           307                       # Number of write requests responded to by this memory
system.mem_ctrls.num_writes::cpu60.data           307                       # Number of write requests responded to by this memory
system.mem_ctrls.num_writes::cpu61.data           307                       # Number of write requests responded to by this memory
system.mem_ctrls.num_writes::cpu62.data           307                       # Number of write requests responded to by this memory
system.mem_ctrls.num_writes::cpu63.data           312                       # Number of write requests responded to by this memory
system.mem_ctrls.num_writes::total              73481                       # Number of write requests responded to by this memory
system.mem_ctrls.bw_read::cpu00.inst       6925090768                       # Total read bandwidth from this memory (bytes/s)
system.mem_ctrls.bw_read::cpu00.data        788749110                       # Total read bandwidth from this memory (bytes/s)
system.mem_ctrls.bw_read::cpu01.inst       2595704653                       # Total read bandwidth from this memory (bytes/s)
system.mem_ctrls.bw_read::cpu01.data        650842630                       # Total read bandwidth from this memory (bytes/s)
system.mem_ctrls.bw_read::cpu02.inst       2589797013                       # Total read bandwidth from this memory (bytes/s)
system.mem_ctrls.bw_read::cpu02.data        649998681                       # Total read bandwidth from this memory (bytes/s)
system.mem_ctrls.bw_read::cpu03.inst       2583889372                       # Total read bandwidth from this memory (bytes/s)
system.mem_ctrls.bw_read::cpu03.data        649260226                       # Total read bandwidth from this memory (bytes/s)
system.mem_ctrls.bw_read::cpu04.inst       2577981732                       # Total read bandwidth from this memory (bytes/s)
system.mem_ctrls.bw_read::cpu04.data        648662429                       # Total read bandwidth from this memory (bytes/s)
system.mem_ctrls.bw_read::cpu05.inst       2572074092                       # Total read bandwidth from this memory (bytes/s)
system.mem_ctrls.bw_read::cpu05.data        648099797                       # Total read bandwidth from this memory (bytes/s)
system.mem_ctrls.bw_read::cpu06.inst       2567186223                       # Total read bandwidth from this memory (bytes/s)
system.mem_ctrls.bw_read::cpu06.data        646165748                       # Total read bandwidth from this memory (bytes/s)
system.mem_ctrls.bw_read::cpu07.inst       2561278582                       # Total read bandwidth from this memory (bytes/s)
system.mem_ctrls.bw_read::cpu07.data        645497622                       # Total read bandwidth from this memory (bytes/s)
system.mem_ctrls.bw_read::cpu08.inst       2555370942                       # Total read bandwidth from this memory (bytes/s)
system.mem_ctrls.bw_read::cpu08.data        644759167                       # Total read bandwidth from this memory (bytes/s)
system.mem_ctrls.bw_read::cpu09.inst       2549463301                       # Total read bandwidth from this memory (bytes/s)
system.mem_ctrls.bw_read::cpu09.data        644055876                       # Total read bandwidth from this memory (bytes/s)
system.mem_ctrls.bw_read::cpu10.inst       2543555661                       # Total read bandwidth from this memory (bytes/s)
system.mem_ctrls.bw_read::cpu10.data        643211928                       # Total read bandwidth from this memory (bytes/s)
system.mem_ctrls.bw_read::cpu11.inst       2538667792                       # Total read bandwidth from this memory (bytes/s)
system.mem_ctrls.bw_read::cpu11.data        642051498                       # Total read bandwidth from this memory (bytes/s)
system.mem_ctrls.bw_read::cpu12.inst       2532760152                       # Total read bandwidth from this memory (bytes/s)
system.mem_ctrls.bw_read::cpu12.data        641453702                       # Total read bandwidth from this memory (bytes/s)
system.mem_ctrls.bw_read::cpu13.inst       2526852511                       # Total read bandwidth from this memory (bytes/s)
system.mem_ctrls.bw_read::cpu13.data        640750411                       # Total read bandwidth from this memory (bytes/s)
system.mem_ctrls.bw_read::cpu14.inst       2520944871                       # Total read bandwidth from this memory (bytes/s)
system.mem_ctrls.bw_read::cpu14.data        639941627                       # Total read bandwidth from this memory (bytes/s)
system.mem_ctrls.bw_read::cpu15.inst       2515037230                       # Total read bandwidth from this memory (bytes/s)
system.mem_ctrls.bw_read::cpu15.data        639203172                       # Total read bandwidth from this memory (bytes/s)
system.mem_ctrls.bw_read::cpu16.inst       2510149361                       # Total read bandwidth from this memory (bytes/s)
system.mem_ctrls.bw_read::cpu16.data        637585604                       # Total read bandwidth from this memory (bytes/s)
system.mem_ctrls.bw_read::cpu17.inst       2504241721                       # Total read bandwidth from this memory (bytes/s)
system.mem_ctrls.bw_read::cpu17.data        636847149                       # Total read bandwidth from this memory (bytes/s)
system.mem_ctrls.bw_read::cpu18.inst       2498334081                       # Total read bandwidth from this memory (bytes/s)
system.mem_ctrls.bw_read::cpu18.data        636003200                       # Total read bandwidth from this memory (bytes/s)
system.mem_ctrls.bw_read::cpu19.inst       2492426440                       # Total read bandwidth from this memory (bytes/s)
system.mem_ctrls.bw_read::cpu19.data        635370239                       # Total read bandwidth from this memory (bytes/s)
system.mem_ctrls.bw_read::cpu20.inst       2486518800                       # Total read bandwidth from this memory (bytes/s)
system.mem_ctrls.bw_read::cpu20.data        634772442                       # Total read bandwidth from this memory (bytes/s)
system.mem_ctrls.bw_read::cpu21.inst       2480927640                       # Total read bandwidth from this memory (bytes/s)
system.mem_ctrls.bw_read::cpu21.data        633119709                       # Total read bandwidth from this memory (bytes/s)
system.mem_ctrls.bw_read::cpu22.inst       2475723290                       # Total read bandwidth from this memory (bytes/s)
system.mem_ctrls.bw_read::cpu22.data        632381254                       # Total read bandwidth from this memory (bytes/s)
system.mem_ctrls.bw_read::cpu23.inst       2469815650                       # Total read bandwidth from this memory (bytes/s)
system.mem_ctrls.bw_read::cpu23.data        631537305                       # Total read bandwidth from this memory (bytes/s)
system.mem_ctrls.bw_read::cpu24.inst       2463908010                       # Total read bandwidth from this memory (bytes/s)
system.mem_ctrls.bw_read::cpu24.data        630587863                       # Total read bandwidth from this memory (bytes/s)
system.mem_ctrls.bw_read::cpu25.inst       2458000369                       # Total read bandwidth from this memory (bytes/s)
system.mem_ctrls.bw_read::cpu25.data        630095560                       # Total read bandwidth from this memory (bytes/s)
system.mem_ctrls.bw_read::cpu26.inst       2452268551                       # Total read bandwidth from this memory (bytes/s)
system.mem_ctrls.bw_read::cpu26.data        629075788                       # Total read bandwidth from this memory (bytes/s)
system.mem_ctrls.bw_read::cpu27.inst       2447204860                       # Total read bandwidth from this memory (bytes/s)
system.mem_ctrls.bw_read::cpu27.data        627809865                       # Total read bandwidth from this memory (bytes/s)
system.mem_ctrls.bw_read::cpu28.inst       2441297219                       # Total read bandwidth from this memory (bytes/s)
system.mem_ctrls.bw_read::cpu28.data        626965917                       # Total read bandwidth from this memory (bytes/s)
system.mem_ctrls.bw_read::cpu29.inst       2435389579                       # Total read bandwidth from this memory (bytes/s)
system.mem_ctrls.bw_read::cpu29.data        626332955                       # Total read bandwidth from this memory (bytes/s)
system.mem_ctrls.bw_read::cpu30.inst       2429481939                       # Total read bandwidth from this memory (bytes/s)
system.mem_ctrls.bw_read::cpu30.data        625313184                       # Total read bandwidth from this memory (bytes/s)
system.mem_ctrls.bw_read::cpu31.inst       2423574298                       # Total read bandwidth from this memory (bytes/s)
system.mem_ctrls.bw_read::cpu31.data        624504400                       # Total read bandwidth from this memory (bytes/s)
system.mem_ctrls.bw_read::cpu32.inst       2418686429                       # Total read bandwidth from this memory (bytes/s)
system.mem_ctrls.bw_read::cpu32.data        623554958                       # Total read bandwidth from this memory (bytes/s)
system.mem_ctrls.bw_read::cpu33.inst       2412778789                       # Total read bandwidth from this memory (bytes/s)
system.mem_ctrls.bw_read::cpu33.data        622746174                       # Total read bandwidth from this memory (bytes/s)
system.mem_ctrls.bw_read::cpu34.inst       2406871148                       # Total read bandwidth from this memory (bytes/s)
system.mem_ctrls.bw_read::cpu34.data        621972554                       # Total read bandwidth from this memory (bytes/s)
system.mem_ctrls.bw_read::cpu35.inst       2400963508                       # Total read bandwidth from this memory (bytes/s)
system.mem_ctrls.bw_read::cpu35.data        621198935                       # Total read bandwidth from this memory (bytes/s)
system.mem_ctrls.bw_read::cpu36.inst       2395266855                       # Total read bandwidth from this memory (bytes/s)
system.mem_ctrls.bw_read::cpu36.data        620425315                       # Total read bandwidth from this memory (bytes/s)
system.mem_ctrls.bw_read::cpu37.inst       2389816353                       # Total read bandwidth from this memory (bytes/s)
system.mem_ctrls.bw_read::cpu37.data        618772582                       # Total read bandwidth from this memory (bytes/s)
system.mem_ctrls.bw_read::cpu38.inst       2384260358                       # Total read bandwidth from this memory (bytes/s)
system.mem_ctrls.bw_read::cpu38.data        617893469                       # Total read bandwidth from this memory (bytes/s)
system.mem_ctrls.bw_read::cpu39.inst       2378352718                       # Total read bandwidth from this memory (bytes/s)
system.mem_ctrls.bw_read::cpu39.data        617330837                       # Total read bandwidth from this memory (bytes/s)
system.mem_ctrls.bw_read::cpu40.inst       2372445077                       # Total read bandwidth from this memory (bytes/s)
system.mem_ctrls.bw_read::cpu40.data        616592382                       # Total read bandwidth from this memory (bytes/s)
system.mem_ctrls.bw_read::cpu41.inst       2366537437                       # Total read bandwidth from this memory (bytes/s)
system.mem_ctrls.bw_read::cpu41.data        615431952                       # Total read bandwidth from this memory (bytes/s)
system.mem_ctrls.bw_read::cpu42.inst       2361122100                       # Total read bandwidth from this memory (bytes/s)
system.mem_ctrls.bw_read::cpu42.data        614377016                       # Total read bandwidth from this memory (bytes/s)
system.mem_ctrls.bw_read::cpu43.inst       2355741928                       # Total read bandwidth from this memory (bytes/s)
system.mem_ctrls.bw_read::cpu43.data        613392410                       # Total read bandwidth from this memory (bytes/s)
system.mem_ctrls.bw_read::cpu44.inst       2349834287                       # Total read bandwidth from this memory (bytes/s)
system.mem_ctrls.bw_read::cpu44.data        612618790                       # Total read bandwidth from this memory (bytes/s)
system.mem_ctrls.bw_read::cpu45.inst       2343926647                       # Total read bandwidth from this memory (bytes/s)
system.mem_ctrls.bw_read::cpu45.data        611880335                       # Total read bandwidth from this memory (bytes/s)
system.mem_ctrls.bw_read::cpu46.inst       2338019006                       # Total read bandwidth from this memory (bytes/s)
system.mem_ctrls.bw_read::cpu46.data        611106716                       # Total read bandwidth from this memory (bytes/s)
system.mem_ctrls.bw_read::cpu47.inst       2332111366                       # Total read bandwidth from this memory (bytes/s)
system.mem_ctrls.bw_read::cpu47.data        610403425                       # Total read bandwidth from this memory (bytes/s)
system.mem_ctrls.bw_read::cpu48.inst       2327223497                       # Total read bandwidth from this memory (bytes/s)
system.mem_ctrls.bw_read::cpu48.data        608821021                       # Total read bandwidth from this memory (bytes/s)
system.mem_ctrls.bw_read::cpu49.inst       2321315857                       # Total read bandwidth from this memory (bytes/s)
system.mem_ctrls.bw_read::cpu49.data        608117731                       # Total read bandwidth from this memory (bytes/s)
system.mem_ctrls.bw_read::cpu50.inst       2315408216                       # Total read bandwidth from this memory (bytes/s)
system.mem_ctrls.bw_read::cpu50.data        607344111                       # Total read bandwidth from this memory (bytes/s)
system.mem_ctrls.bw_read::cpu51.inst       2309359918                       # Total read bandwidth from this memory (bytes/s)
system.mem_ctrls.bw_read::cpu51.data        606922137                       # Total read bandwidth from this memory (bytes/s)
system.mem_ctrls.bw_read::cpu52.inst       2303592935                       # Total read bandwidth from this memory (bytes/s)
system.mem_ctrls.bw_read::cpu52.data        605832037                       # Total read bandwidth from this memory (bytes/s)
system.mem_ctrls.bw_read::cpu53.inst       2298705066                       # Total read bandwidth from this memory (bytes/s)
system.mem_ctrls.bw_read::cpu53.data        604495785                       # Total read bandwidth from this memory (bytes/s)
system.mem_ctrls.bw_read::cpu54.inst       2292797426                       # Total read bandwidth from this memory (bytes/s)
system.mem_ctrls.bw_read::cpu54.data        603757330                       # Total read bandwidth from this memory (bytes/s)
system.mem_ctrls.bw_read::cpu55.inst       2286889786                       # Total read bandwidth from this memory (bytes/s)
system.mem_ctrls.bw_read::cpu55.data        602983710                       # Total read bandwidth from this memory (bytes/s)
system.mem_ctrls.bw_read::cpu56.inst       2280982145                       # Total read bandwidth from this memory (bytes/s)
system.mem_ctrls.bw_read::cpu56.data        602421078                       # Total read bandwidth from this memory (bytes/s)
system.mem_ctrls.bw_read::cpu57.inst       2275074505                       # Total read bandwidth from this memory (bytes/s)
system.mem_ctrls.bw_read::cpu57.data        601190319                       # Total read bandwidth from this memory (bytes/s)
system.mem_ctrls.bw_read::cpu58.inst       2269483345                       # Total read bandwidth from this memory (bytes/s)
system.mem_ctrls.bw_read::cpu58.data        600205712                       # Total read bandwidth from this memory (bytes/s)
system.mem_ctrls.bw_read::cpu59.inst       2264278995                       # Total read bandwidth from this memory (bytes/s)
system.mem_ctrls.bw_read::cpu59.data        599432093                       # Total read bandwidth from this memory (bytes/s)
system.mem_ctrls.bw_read::cpu60.inst       2258371355                       # Total read bandwidth from this memory (bytes/s)
system.mem_ctrls.bw_read::cpu60.data        598658473                       # Total read bandwidth from this memory (bytes/s)
system.mem_ctrls.bw_read::cpu61.inst       2252463715                       # Total read bandwidth from this memory (bytes/s)
system.mem_ctrls.bw_read::cpu61.data        597990347                       # Total read bandwidth from this memory (bytes/s)
system.mem_ctrls.bw_read::cpu62.inst       2246556074                       # Total read bandwidth from this memory (bytes/s)
system.mem_ctrls.bw_read::cpu62.data        597111234                       # Total read bandwidth from this memory (bytes/s)
system.mem_ctrls.bw_read::cpu63.inst       2240507776                       # Total read bandwidth from this memory (bytes/s)
system.mem_ctrls.bw_read::cpu63.data        595985969                       # Total read bandwidth from this memory (bytes/s)
system.mem_ctrls.bw_read::total          199346634315                       # Total read bandwidth from this memory (bytes/s)
system.mem_ctrls.bw_inst_read::cpu00.inst   6925090768                       # Instruction read bandwidth from this memory (bytes/s)
system.mem_ctrls.bw_inst_read::cpu01.inst   2595704653                       # Instruction read bandwidth from this memory (bytes/s)
system.mem_ctrls.bw_inst_read::cpu02.inst   2589797013                       # Instruction read bandwidth from this memory (bytes/s)
system.mem_ctrls.bw_inst_read::cpu03.inst   2583889372                       # Instruction read bandwidth from this memory (bytes/s)
system.mem_ctrls.bw_inst_read::cpu04.inst   2577981732                       # Instruction read bandwidth from this memory (bytes/s)
system.mem_ctrls.bw_inst_read::cpu05.inst   2572074092                       # Instruction read bandwidth from this memory (bytes/s)
system.mem_ctrls.bw_inst_read::cpu06.inst   2567186223                       # Instruction read bandwidth from this memory (bytes/s)
system.mem_ctrls.bw_inst_read::cpu07.inst   2561278582                       # Instruction read bandwidth from this memory (bytes/s)
system.mem_ctrls.bw_inst_read::cpu08.inst   2555370942                       # Instruction read bandwidth from this memory (bytes/s)
system.mem_ctrls.bw_inst_read::cpu09.inst   2549463301                       # Instruction read bandwidth from this memory (bytes/s)
system.mem_ctrls.bw_inst_read::cpu10.inst   2543555661                       # Instruction read bandwidth from this memory (bytes/s)
system.mem_ctrls.bw_inst_read::cpu11.inst   2538667792                       # Instruction read bandwidth from this memory (bytes/s)
system.mem_ctrls.bw_inst_read::cpu12.inst   2532760152                       # Instruction read bandwidth from this memory (bytes/s)
system.mem_ctrls.bw_inst_read::cpu13.inst   2526852511                       # Instruction read bandwidth from this memory (bytes/s)
system.mem_ctrls.bw_inst_read::cpu14.inst   2520944871                       # Instruction read bandwidth from this memory (bytes/s)
system.mem_ctrls.bw_inst_read::cpu15.inst   2515037230                       # Instruction read bandwidth from this memory (bytes/s)
system.mem_ctrls.bw_inst_read::cpu16.inst   2510149361                       # Instruction read bandwidth from this memory (bytes/s)
system.mem_ctrls.bw_inst_read::cpu17.inst   2504241721                       # Instruction read bandwidth from this memory (bytes/s)
system.mem_ctrls.bw_inst_read::cpu18.inst   2498334081                       # Instruction read bandwidth from this memory (bytes/s)
system.mem_ctrls.bw_inst_read::cpu19.inst   2492426440                       # Instruction read bandwidth from this memory (bytes/s)
system.mem_ctrls.bw_inst_read::cpu20.inst   2486518800                       # Instruction read bandwidth from this memory (bytes/s)
system.mem_ctrls.bw_inst_read::cpu21.inst   2480927640                       # Instruction read bandwidth from this memory (bytes/s)
system.mem_ctrls.bw_inst_read::cpu22.inst   2475723290                       # Instruction read bandwidth from this memory (bytes/s)
system.mem_ctrls.bw_inst_read::cpu23.inst   2469815650                       # Instruction read bandwidth from this memory (bytes/s)
system.mem_ctrls.bw_inst_read::cpu24.inst   2463908010                       # Instruction read bandwidth from this memory (bytes/s)
system.mem_ctrls.bw_inst_read::cpu25.inst   2458000369                       # Instruction read bandwidth from this memory (bytes/s)
system.mem_ctrls.bw_inst_read::cpu26.inst   2452268551                       # Instruction read bandwidth from this memory (bytes/s)
system.mem_ctrls.bw_inst_read::cpu27.inst   2447204860                       # Instruction read bandwidth from this memory (bytes/s)
system.mem_ctrls.bw_inst_read::cpu28.inst   2441297219                       # Instruction read bandwidth from this memory (bytes/s)
system.mem_ctrls.bw_inst_read::cpu29.inst   2435389579                       # Instruction read bandwidth from this memory (bytes/s)
system.mem_ctrls.bw_inst_read::cpu30.inst   2429481939                       # Instruction read bandwidth from this memory (bytes/s)
system.mem_ctrls.bw_inst_read::cpu31.inst   2423574298                       # Instruction read bandwidth from this memory (bytes/s)
system.mem_ctrls.bw_inst_read::cpu32.inst   2418686429                       # Instruction read bandwidth from this memory (bytes/s)
system.mem_ctrls.bw_inst_read::cpu33.inst   2412778789                       # Instruction read bandwidth from this memory (bytes/s)
system.mem_ctrls.bw_inst_read::cpu34.inst   2406871148                       # Instruction read bandwidth from this memory (bytes/s)
system.mem_ctrls.bw_inst_read::cpu35.inst   2400963508                       # Instruction read bandwidth from this memory (bytes/s)
system.mem_ctrls.bw_inst_read::cpu36.inst   2395266855                       # Instruction read bandwidth from this memory (bytes/s)
system.mem_ctrls.bw_inst_read::cpu37.inst   2389816353                       # Instruction read bandwidth from this memory (bytes/s)
system.mem_ctrls.bw_inst_read::cpu38.inst   2384260358                       # Instruction read bandwidth from this memory (bytes/s)
system.mem_ctrls.bw_inst_read::cpu39.inst   2378352718                       # Instruction read bandwidth from this memory (bytes/s)
system.mem_ctrls.bw_inst_read::cpu40.inst   2372445077                       # Instruction read bandwidth from this memory (bytes/s)
system.mem_ctrls.bw_inst_read::cpu41.inst   2366537437                       # Instruction read bandwidth from this memory (bytes/s)
[...]
system.membus.pkt_size_system.cpu28.dcache_port::system.mem_ctrls.port        73078                       # Cumulative packet size per connected master and slave (bytes)
system.membus.pkt_size_system.cpu29.icache_port::system.mem_ctrls.port       277028                       # Cumulative packet size per connected master and slave (bytes)
system.membus.pkt_size_system.cpu29.dcache_port::system.mem_ctrls.port        73038                       # Cumulative packet size per connected master and slave (bytes)
system.membus.pkt_size_system.cpu30.icache_port::system.mem_ctrls.port       276356                       # Cumulative packet size per connected master and slave (bytes)
system.membus.pkt_size_system.cpu30.dcache_port::system.mem_ctrls.port        72838                       # Cumulative packet size per connected master and slave (bytes)
system.membus.pkt_size_system.cpu31.icache_port::system.mem_ctrls.port       275684                       # Cumulative packet size per connected master and slave (bytes)
system.membus.pkt_size_system.cpu31.dcache_port::system.mem_ctrls.port        72722                       # Cumulative packet size per connected master and slave (bytes)
system.membus.pkt_size_system.cpu32.icache_port::system.mem_ctrls.port       275128                       # Cumulative packet size per connected master and slave (bytes)
system.membus.pkt_size_system.cpu32.dcache_port::system.mem_ctrls.port        72730                       # Cumulative packet size per connected master and slave (bytes)
system.membus.pkt_size_system.cpu33.icache_port::system.mem_ctrls.port       274456                       # Cumulative packet size per connected master and slave (bytes)
system.membus.pkt_size_system.cpu33.dcache_port::system.mem_ctrls.port        72622                       # Cumulative packet size per connected master and slave (bytes)
system.membus.pkt_size_system.cpu34.icache_port::system.mem_ctrls.port       273784                       # Cumulative packet size per connected master and slave (bytes)
system.membus.pkt_size_system.cpu34.dcache_port::system.mem_ctrls.port        72518                       # Cumulative packet size per connected master and slave (bytes)
system.membus.pkt_size_system.cpu35.icache_port::system.mem_ctrls.port       273112                       # Cumulative packet size per connected master and slave (bytes)
system.membus.pkt_size_system.cpu35.dcache_port::system.mem_ctrls.port        72418                       # Cumulative packet size per connected master and slave (bytes)
system.membus.pkt_size_system.cpu36.icache_port::system.mem_ctrls.port       272464                       # Cumulative packet size per connected master and slave (bytes)
system.membus.pkt_size_system.cpu36.dcache_port::system.mem_ctrls.port        72382                       # Cumulative packet size per connected master and slave (bytes)
system.membus.pkt_size_system.cpu37.icache_port::system.mem_ctrls.port       271844                       # Cumulative packet size per connected master and slave (bytes)
system.membus.pkt_size_system.cpu37.dcache_port::system.mem_ctrls.port        72102                       # Cumulative packet size per connected master and slave (bytes)
system.membus.pkt_size_system.cpu38.icache_port::system.mem_ctrls.port       271212                       # Cumulative packet size per connected master and slave (bytes)
system.membus.pkt_size_system.cpu38.dcache_port::system.mem_ctrls.port        71894                       # Cumulative packet size per connected master and slave (bytes)
system.membus.pkt_size_system.cpu39.icache_port::system.mem_ctrls.port       270540                       # Cumulative packet size per connected master and slave (bytes)
system.membus.pkt_size_system.cpu39.dcache_port::system.mem_ctrls.port        71874                       # Cumulative packet size per connected master and slave (bytes)
system.membus.pkt_size_system.cpu40.icache_port::system.mem_ctrls.port       269868                       # Cumulative packet size per connected master and slave (bytes)
system.membus.pkt_size_system.cpu40.dcache_port::system.mem_ctrls.port        71798                       # Cumulative packet size per connected master and slave (bytes)
system.membus.pkt_size_system.cpu41.icache_port::system.mem_ctrls.port       269196                       # Cumulative packet size per connected master and slave (bytes)
system.membus.pkt_size_system.cpu41.dcache_port::system.mem_ctrls.port        71538                       # Cumulative packet size per connected master and slave (bytes)
system.membus.pkt_size_system.cpu42.icache_port::system.mem_ctrls.port       268580                       # Cumulative packet size per connected master and slave (bytes)
system.membus.pkt_size_system.cpu42.dcache_port::system.mem_ctrls.port        71482                       # Cumulative packet size per connected master and slave (bytes)
system.membus.pkt_size_system.cpu43.icache_port::system.mem_ctrls.port       267968                       # Cumulative packet size per connected master and slave (bytes)
system.membus.pkt_size_system.cpu43.dcache_port::system.mem_ctrls.port        71310                       # Cumulative packet size per connected master and slave (bytes)
system.membus.pkt_size_system.cpu44.icache_port::system.mem_ctrls.port       267296                       # Cumulative packet size per connected master and slave (bytes)
system.membus.pkt_size_system.cpu44.dcache_port::system.mem_ctrls.port        71214                       # Cumulative packet size per connected master and slave (bytes)
system.membus.pkt_size_system.cpu45.icache_port::system.mem_ctrls.port       266624                       # Cumulative packet size per connected master and slave (bytes)
system.membus.pkt_size_system.cpu45.dcache_port::system.mem_ctrls.port        71122                       # Cumulative packet size per connected master and slave (bytes)
system.membus.pkt_size_system.cpu46.icache_port::system.mem_ctrls.port       265952                       # Cumulative packet size per connected master and slave (bytes)
system.membus.pkt_size_system.cpu46.dcache_port::system.mem_ctrls.port        71026                       # Cumulative packet size per connected master and slave (bytes)
system.membus.pkt_size_system.cpu47.icache_port::system.mem_ctrls.port       265280                       # Cumulative packet size per connected master and slave (bytes)
system.membus.pkt_size_system.cpu47.dcache_port::system.mem_ctrls.port        70954                       # Cumulative packet size per connected master and slave (bytes)
system.membus.pkt_size_system.cpu48.icache_port::system.mem_ctrls.port       264724                       # Cumulative packet size per connected master and slave (bytes)
system.membus.pkt_size_system.cpu48.dcache_port::system.mem_ctrls.port        70698                       # Cumulative packet size per connected master and slave (bytes)
system.membus.pkt_size_system.cpu49.icache_port::system.mem_ctrls.port       264052                       # Cumulative packet size per connected master and slave (bytes)
system.membus.pkt_size_system.cpu49.dcache_port::system.mem_ctrls.port        70626                       # Cumulative packet size per connected master and slave (bytes)
system.membus.pkt_size_system.cpu50.icache_port::system.mem_ctrls.port       263380                       # Cumulative packet size per connected master and slave (bytes)
system.membus.pkt_size_system.cpu50.dcache_port::system.mem_ctrls.port        70526                       # Cumulative packet size per connected master and slave (bytes)
system.membus.pkt_size_system.cpu51.icache_port::system.mem_ctrls.port       262692                       # Cumulative packet size per connected master and slave (bytes)
system.membus.pkt_size_system.cpu51.dcache_port::system.mem_ctrls.port        70582                       # Cumulative packet size per connected master and slave (bytes)
system.membus.pkt_size_system.cpu52.icache_port::system.mem_ctrls.port       262036                       # Cumulative packet size per connected master and slave (bytes)
system.membus.pkt_size_system.cpu52.dcache_port::system.mem_ctrls.port        70426                       # Cumulative packet size per connected master and slave (bytes)
system.membus.pkt_size_system.cpu53.icache_port::system.mem_ctrls.port       261480                       # Cumulative packet size per connected master and slave (bytes)
system.membus.pkt_size_system.cpu53.dcache_port::system.mem_ctrls.port        70194                       # Cumulative packet size per connected master and slave (bytes)
system.membus.pkt_size_system.cpu54.icache_port::system.mem_ctrls.port       260808                       # Cumulative packet size per connected master and slave (bytes)
system.membus.pkt_size_system.cpu54.dcache_port::system.mem_ctrls.port        70102                       # Cumulative packet size per connected master and slave (bytes)
system.membus.pkt_size_system.cpu55.icache_port::system.mem_ctrls.port       260136                       # Cumulative packet size per connected master and slave (bytes)
system.membus.pkt_size_system.cpu55.dcache_port::system.mem_ctrls.port        70002                       # Cumulative packet size per connected master and slave (bytes)
system.membus.pkt_size_system.cpu56.icache_port::system.mem_ctrls.port       259464                       # Cumulative packet size per connected master and slave (bytes)
system.membus.pkt_size_system.cpu56.dcache_port::system.mem_ctrls.port        69998                       # Cumulative packet size per connected master and slave (bytes)
system.membus.pkt_size_system.cpu57.icache_port::system.mem_ctrls.port       258792                       # Cumulative packet size per connected master and slave (bytes)
system.membus.pkt_size_system.cpu57.dcache_port::system.mem_ctrls.port        69710                       # Cumulative packet size per connected master and slave (bytes)
system.membus.pkt_size_system.cpu58.icache_port::system.mem_ctrls.port       258156                       # Cumulative packet size per connected master and slave (bytes)
system.membus.pkt_size_system.cpu58.dcache_port::system.mem_ctrls.port        69630                       # Cumulative packet size per connected master and slave (bytes)
system.membus.pkt_size_system.cpu59.icache_port::system.mem_ctrls.port       257564                       # Cumulative packet size per connected master and slave (bytes)
system.membus.pkt_size_system.cpu59.dcache_port::system.mem_ctrls.port        69602                       # Cumulative packet size per connected master and slave (bytes)
system.membus.pkt_size_system.cpu60.icache_port::system.mem_ctrls.port       256892                       # Cumulative packet size per connected master and slave (bytes)
system.membus.pkt_size_system.cpu60.dcache_port::system.mem_ctrls.port        69498                       # Cumulative packet size per connected master and slave (bytes)
system.membus.pkt_size_system.cpu61.icache_port::system.mem_ctrls.port       256220                       # Cumulative packet size per connected master and slave (bytes)
system.membus.pkt_size_system.cpu61.dcache_port::system.mem_ctrls.port        69446                       # Cumulative packet size per connected master and slave (bytes)
system.membus.pkt_size_system.cpu62.icache_port::system.mem_ctrls.port       255548                       # Cumulative packet size per connected master and slave (bytes)
system.membus.pkt_size_system.cpu62.dcache_port::system.mem_ctrls.port        69302                       # Cumulative packet size per connected master and slave (bytes)
system.membus.pkt_size_system.cpu63.icache_port::system.mem_ctrls.port       254860                       # Cumulative packet size per connected master and slave (bytes)
system.membus.pkt_size_system.cpu63.dcache_port::system.mem_ctrls.port        69094                       # Cumulative packet size per connected master and slave (bytes)
system.membus.pkt_size::total                22975692                       # Cumulative packet size per connected master and slave (bytes)
system.membus.snoops                                0                       # Total snoops (count)
system.membus.snoop_fanout::samples           5736754                       # Request fanout histogram
system.membus.snoop_fanout::mean            63.789543                       # Request fanout histogram
system.membus.snoop_fanout::stdev            0.407633                       # Request fanout histogram
system.membus.snoop_fanout::underflows              0      0.00%      0.00% # Request fanout histogram
system.membus.snoop_fanout::0                       0      0.00%      0.00% # Request fanout histogram
system.membus.snoop_fanout::1                       0      0.00%      0.00% # Request fanout histogram
system.membus.snoop_fanout::2                       0      0.00%      0.00% # Request fanout histogram
system.membus.snoop_fanout::3                       0      0.00%      0.00% # Request fanout histogram
system.membus.snoop_fanout::4                       0      0.00%      0.00% # Request fanout histogram
system.membus.snoop_fanout::5                       0      0.00%      0.00% # Request fanout histogram
system.membus.snoop_fanout::6                       0      0.00%      0.00% # Request fanout histogram
system.membus.snoop_fanout::7                       0      0.00%      0.00% # Request fanout histogram
system.membus.snoop_fanout::8                       0      0.00%      0.00% # Request fanout histogram
system.membus.snoop_fanout::9                       0      0.00%      0.00% # Request fanout histogram
system.membus.snoop_fanout::10                      0      0.00%      0.00% # Request fanout histogram
system.membus.snoop_fanout::11                      0      0.00%      0.00% # Request fanout histogram
system.membus.snoop_fanout::12                      0      0.00%      0.00% # Request fanout histogram
system.membus.snoop_fanout::13                      0      0.00%      0.00% # Request fanout histogram
system.membus.snoop_fanout::14                      0      0.00%      0.00% # Request fanout histogram
system.membus.snoop_fanout::15                      0      0.00%      0.00% # Request fanout histogram
system.membus.snoop_fanout::16                      0      0.00%      0.00% # Request fanout histogram
system.membus.snoop_fanout::17                      0      0.00%      0.00% # Request fanout histogram
system.membus.snoop_fanout::18                      0      0.00%      0.00% # Request fanout histogram
system.membus.snoop_fanout::19                      0      0.00%      0.00% # Request fanout histogram
system.membus.snoop_fanout::20                      0      0.00%      0.00% # Request fanout histogram
system.membus.snoop_fanout::21                      0      0.00%      0.00% # Request fanout histogram
system.membus.snoop_fanout::22                      0      0.00%      0.00% # Request fanout histogram
system.membus.snoop_fanout::23                      0      0.00%      0.00% # Request fanout histogram
system.membus.snoop_fanout::24                      0      0.00%      0.00% # Request fanout histogram
system.membus.snoop_fanout::25                      0      0.00%      0.00% # Request fanout histogram
system.membus.snoop_fanout::26                      0      0.00%      0.00% # Request fanout histogram
system.membus.snoop_fanout::27                      0      0.00%      0.00% # Request fanout histogram
system.membus.snoop_fanout::28                      0      0.00%      0.00% # Request fanout histogram
system.membus.snoop_fanout::29                      0      0.00%      0.00% # Request fanout histogram
system.membus.snoop_fanout::30                      0      0.00%      0.00% # Request fanout histogram
system.membus.snoop_fanout::31                      0      0.00%      0.00% # Request fanout histogram
system.membus.snoop_fanout::32                      0      0.00%      0.00% # Request fanout histogram
system.membus.snoop_fanout::33                      0      0.00%      0.00% # Request fanout histogram
system.membus.snoop_fanout::34                      0      0.00%      0.00% # Request fanout histogram
system.membus.snoop_fanout::35                      0      0.00%      0.00% # Request fanout histogram
system.membus.snoop_fanout::36                      0      0.00%      0.00% # Request fanout histogram
system.membus.snoop_fanout::37                      0      0.00%      0.00% # Request fanout histogram
system.membus.snoop_fanout::38                      0      0.00%      0.00% # Request fanout histogram
system.membus.snoop_fanout::39                      0      0.00%      0.00% # Request fanout histogram
system.membus.snoop_fanout::40                      0      0.00%      0.00% # Request fanout histogram
system.membus.snoop_fanout::41                      0      0.00%      0.00% # Request fanout histogram
system.membus.snoop_fanout::42                      0      0.00%      0.00% # Request fanout histogram
system.membus.snoop_fanout::43                      0      0.00%      0.00% # Request fanout histogram
system.membus.snoop_fanout::44                      0      0.00%      0.00% # Request fanout histogram
system.membus.snoop_fanout::45                      0      0.00%      0.00% # Request fanout histogram
system.membus.snoop_fanout::46                      0      0.00%      0.00% # Request fanout histogram
system.membus.snoop_fanout::47                      0      0.00%      0.00% # Request fanout histogram
system.membus.snoop_fanout::48                      0      0.00%      0.00% # Request fanout histogram
system.membus.snoop_fanout::49                      0      0.00%      0.00% # Request fanout histogram
system.membus.snoop_fanout::50                      0      0.00%      0.00% # Request fanout histogram
system.membus.snoop_fanout::51                      0      0.00%      0.00% # Request fanout histogram
system.membus.snoop_fanout::52                      0      0.00%      0.00% # Request fanout histogram
system.membus.snoop_fanout::53                      0      0.00%      0.00% # Request fanout histogram
system.membus.snoop_fanout::54                      0      0.00%      0.00% # Request fanout histogram
system.membus.snoop_fanout::55                      0      0.00%      0.00% # Request fanout histogram
system.membus.snoop_fanout::56                      0      0.00%      0.00% # Request fanout histogram
system.membus.snoop_fanout::57                      0      0.00%      0.00% # Request fanout histogram
system.membus.snoop_fanout::58                      0      0.00%      0.00% # Request fanout histogram
system.membus.snoop_fanout::59                      0      0.00%      0.00% # Request fanout histogram
system.membus.snoop_fanout::60                      0      0.00%      0.00% # Request fanout histogram
system.membus.snoop_fanout::61                      0      0.00%      0.00% # Request fanout histogram
system.membus.snoop_fanout::62                      0      0.00%      0.00% # Request fanout histogram
system.membus.snoop_fanout::63                1207341     21.05%     21.05% # Request fanout histogram
system.membus.snoop_fanout::64                4529413     78.95%    100.00% # Request fanout histogram
system.membus.snoop_fanout::overflows               0      0.00%    100.00% # Request fanout histogram
system.membus.snoop_fanout::min_value              63                       # Request fanout histogram
system.membus.snoop_fanout::max_value              64                       # Request fanout histogram
system.membus.snoop_fanout::total             5736754                       # Request fanout histogram

---------- End Simulation Statistics   ----------
