
---------- Begin Simulation Statistics ----------
sim_seconds                                  0.000151                       # Number of seconds simulated
sim_ticks                                   151241000                       # Number of ticks simulated
final_tick                                  151241000                       # Number of ticks from beginning of simulation (restored from checkpoints and never reset)
sim_freq                                 1000000000000                       # Frequency of simulated ticks
host_inst_rate                                 214693                       # Simulator instruction rate (inst/s)
host_op_rate                                   216257                       # Simulator op (including micro ops) rate (op/s)
host_tick_rate                                5584826                       # Simulator tick rate (ticks/s)
host_mem_usage                                 892964                       # Number of bytes of host memory used
host_seconds                                    27.08                       # Real time elapsed on the host
sim_insts                                     5814039                       # Number of instructions simulated
sim_ops                                       5856377                       # Number of ops (including micro ops) simulated
system.voltage_domain.voltage                       1                       # Voltage in Volts
system.clk_domain.clock                          1000                       # Clock period in ticks
system.mem_ctrls.bytes_read::cpu00.inst         35264                       # Number of bytes read from this memory
system.mem_ctrls.bytes_read::cpu00.data        121408                       # Number of bytes read from this memory
system.mem_ctrls.bytes_read::cpu01.inst           896                       # Number of bytes read from this memory
system.mem_ctrls.bytes_read::cpu01.data           256                       # Number of bytes read from this memory
system.mem_ctrls.bytes_read::cpu02.inst           640                       # Number of bytes read from this memory
system.mem_ctrls.bytes_read::cpu02.data           256                       # Number of bytes read from this memory
system.mem_ctrls.bytes_read::cpu03.inst           320                       # Number of bytes read from this memory
system.mem_ctrls.bytes_read::cpu03.data           320                       # Number of bytes read from this memory
system.mem_ctrls.bytes_read::cpu04.inst            64                       # Number of bytes read from this memory
system.mem_ctrls.bytes_read::cpu04.data           256                       # Number of bytes read from this memory
system.mem_ctrls.bytes_read::cpu05.inst           192                       # Number of bytes read from this memory
system.mem_ctrls.bytes_read::cpu05.data           256                       # Number of bytes read from this memory
system.mem_ctrls.bytes_read::cpu06.data           256                       # Number of bytes read from this memory
system.mem_ctrls.bytes_read::cpu07.data           320                       # Number of bytes read from this memory
system.mem_ctrls.bytes_read::cpu08.data           256                       # Number of bytes read from this memory
system.mem_ctrls.bytes_read::cpu09.data           256                       # Number of bytes read from this memory
system.mem_ctrls.bytes_read::cpu10.data           256                       # Number of bytes read from this memory
system.mem_ctrls.bytes_read::cpu11.data           256                       # Number of bytes read from this memory
system.mem_ctrls.bytes_read::cpu12.data           384                       # Number of bytes read from this memory
system.mem_ctrls.bytes_read::cpu13.data           256                       # Number of bytes read from this memory
system.mem_ctrls.bytes_read::cpu14.data           256                       # Number of bytes read from this memory
system.mem_ctrls.bytes_read::cpu15.data           256                       # Number of bytes read from this memory
system.mem_ctrls.bytes_read::cpu16.data           256                       # Number of bytes read from this memory
system.mem_ctrls.bytes_read::cpu17.data           256                       # Number of bytes read from this memory
system.mem_ctrls.bytes_read::cpu18.data           256                       # Number of bytes read from this memory
system.mem_ctrls.bytes_read::cpu19.data           256                       # Number of bytes read from this memory
system.mem_ctrls.bytes_read::cpu20.data           256                       # Number of bytes read from this memory
system.mem_ctrls.bytes_read::cpu21.data           256                       # Number of bytes read from this memory
system.mem_ctrls.bytes_read::cpu22.data           256                       # Number of bytes read from this memory
system.mem_ctrls.bytes_read::cpu23.inst            64                       # Number of bytes read from this memory
system.mem_ctrls.bytes_read::cpu23.data           256                       # Number of bytes read from this memory
system.mem_ctrls.bytes_read::cpu24.data           256                       # Number of bytes read from this memory
system.mem_ctrls.bytes_read::cpu25.data           256                       # Number of bytes read from this memory
system.mem_ctrls.bytes_read::cpu26.data           256                       # Number of bytes read from this memory
system.mem_ctrls.bytes_read::cpu27.data           256                       # Number of bytes read from this memory
system.mem_ctrls.bytes_read::cpu28.data           320                       # Number of bytes read from this memory
system.mem_ctrls.bytes_read::cpu29.data           256                       # Number of bytes read from this memory
system.mem_ctrls.bytes_read::cpu30.data           256                       # Number of bytes read from this memory
system.mem_ctrls.bytes_read::cpu31.inst            64                       # Number of bytes read from this memory
system.mem_ctrls.bytes_read::cpu31.data           256                       # Number of bytes read from this memory
system.mem_ctrls.bytes_read::total             167168                       # Number of bytes read from this memory
system.mem_ctrls.bytes_inst_read::cpu00.inst        35264                       # Number of instructions bytes read from this memory
system.mem_ctrls.bytes_inst_read::cpu01.inst          896                       # Number of instructions bytes read from this memory
system.mem_ctrls.bytes_inst_read::cpu02.inst          640                       # Number of instructions bytes read from this memory
system.mem_ctrls.bytes_inst_read::cpu03.inst          320                       # Number of instructions bytes read from this memory
system.mem_ctrls.bytes_inst_read::cpu04.inst           64                       # Number of instructions bytes read from this memory
system.mem_ctrls.bytes_inst_read::cpu05.inst          192                       # Number of instructions bytes read from this memory
system.mem_ctrls.bytes_inst_read::cpu23.inst           64                       # Number of instructions bytes read from this memory
system.mem_ctrls.bytes_inst_read::cpu31.inst           64                       # Number of instructions bytes read from this memory
system.mem_ctrls.bytes_inst_read::total         37504                       # Number of instructions bytes read from this memory
system.mem_ctrls.bytes_written::writebacks         1024                       # Number of bytes written to this memory
system.mem_ctrls.bytes_written::total            1024                       # Number of bytes written to this memory
system.mem_ctrls.num_reads::cpu00.inst            551                       # Number of read requests responded to by this memory
system.mem_ctrls.num_reads::cpu00.data           1897                       # Number of read requests responded to by this memory
system.mem_ctrls.num_reads::cpu01.inst             14                       # Number of read requests responded to by this memory
system.mem_ctrls.num_reads::cpu01.data              4                       # Number of read requests responded to by this memory
system.mem_ctrls.num_reads::cpu02.inst             10                       # Number of read requests responded to by this memory
system.mem_ctrls.num_reads::cpu02.data              4                       # Number of read requests responded to by this memory
system.mem_ctrls.num_reads::cpu03.inst              5                       # Number of read requests responded to by this memory
system.mem_ctrls.num_reads::cpu03.data              5                       # Number of read requests responded to by this memory
system.mem_ctrls.num_reads::cpu04.inst              1                       # Number of read requests responded to by this memory
system.mem_ctrls.num_reads::cpu04.data              4                       # Number of read requests responded to by this memory
system.mem_ctrls.num_reads::cpu05.inst              3                       # Number of read requests responded to by this memory
system.mem_ctrls.num_reads::cpu05.data              4                       # Number of read requests responded to by this memory
system.mem_ctrls.num_reads::cpu06.data              4                       # Number of read requests responded to by this memory
system.mem_ctrls.num_reads::cpu07.data              5                       # Number of read requests responded to by this memory
system.mem_ctrls.num_reads::cpu08.data              4                       # Number of read requests responded to by this memory
system.mem_ctrls.num_reads::cpu09.data              4                       # Number of read requests responded to by this memory
system.mem_ctrls.num_reads::cpu10.data              4                       # Number of read requests responded to by this memory
system.mem_ctrls.num_reads::cpu11.data              4                       # Number of read requests responded to by this memory
system.mem_ctrls.num_reads::cpu12.data              6                       # Number of read requests responded to by this memory
system.mem_ctrls.num_reads::cpu13.data              4                       # Number of read requests responded to by this memory
system.mem_ctrls.num_reads::cpu14.data              4                       # Number of read requests responded to by this memory
system.mem_ctrls.num_reads::cpu15.data              4                       # Number of read requests responded to by this memory
system.mem_ctrls.num_reads::cpu16.data              4                       # Number of read requests responded to by this memory
system.mem_ctrls.num_reads::cpu17.data              4                       # Number of read requests responded to by this memory
system.mem_ctrls.num_reads::cpu18.data              4                       # Number of read requests responded to by this memory
system.mem_ctrls.num_reads::cpu19.data              4                       # Number of read requests responded to by this memory
system.mem_ctrls.num_reads::cpu20.data              4                       # Number of read requests responded to by this memory
system.mem_ctrls.num_reads::cpu21.data              4                       # Number of read requests responded to by this memory
system.mem_ctrls.num_reads::cpu22.data              4                       # Number of read requests responded to by this memory
system.mem_ctrls.num_reads::cpu23.inst              1                       # Number of read requests responded to by this memory
system.mem_ctrls.num_reads::cpu23.data              4                       # Number of read requests responded to by this memory
system.mem_ctrls.num_reads::cpu24.data              4                       # Number of read requests responded to by this memory
system.mem_ctrls.num_reads::cpu25.data              4                       # Number of read requests responded to by this memory
system.mem_ctrls.num_reads::cpu26.data              4                       # Number of read requests responded to by this memory
system.mem_ctrls.num_reads::cpu27.data              4                       # Number of read requests responded to by this memory
system.mem_ctrls.num_reads::cpu28.data              5                       # Number of read requests responded to by this memory
system.mem_ctrls.num_reads::cpu29.data              4                       # Number of read requests responded to by this memory
system.mem_ctrls.num_reads::cpu30.data              4                       # Number of read requests responded to by this memory
system.mem_ctrls.num_reads::cpu31.inst              1                       # Number of read requests responded to by this memory
system.mem_ctrls.num_reads::cpu31.data              4                       # Number of read requests responded to by this memory
system.mem_ctrls.num_reads::total                2612                       # Number of read requests responded to by this memory
system.mem_ctrls.num_writes::writebacks            16                       # Number of write requests responded to by this memory
system.mem_ctrls.num_writes::total                 16                       # Number of write requests responded to by this memory
system.mem_ctrls.bw_read::cpu00.inst        233164287                       # Total read bandwidth from this memory (bytes/s)
system.mem_ctrls.bw_read::cpu00.data        802745287                       # Total read bandwidth from this memory (bytes/s)
system.mem_ctrls.bw_read::cpu01.inst          5924319                       # Total read bandwidth from this memory (bytes/s)
system.mem_ctrls.bw_read::cpu01.data          1692663                       # Total read bandwidth from this memory (bytes/s)
system.mem_ctrls.bw_read::cpu02.inst          4231657                       # Total read bandwidth from this memory (bytes/s)
system.mem_ctrls.bw_read::cpu02.data          1692663                       # Total read bandwidth from this memory (bytes/s)
system.mem_ctrls.bw_read::cpu03.inst          2115828                       # Total read bandwidth from this memory (bytes/s)
system.mem_ctrls.bw_read::cpu03.data          2115828                       # Total read bandwidth from this memory (bytes/s)
system.mem_ctrls.bw_read::cpu04.inst           423166                       # Total read bandwidth from this memory (bytes/s)
system.mem_ctrls.bw_read::cpu04.data          1692663                       # Total read bandwidth from this memory (bytes/s)
system.mem_ctrls.bw_read::cpu05.inst          1269497                       # Total read bandwidth from this memory (bytes/s)
system.mem_ctrls.bw_read::cpu05.data          1692663                       # Total read bandwidth from this memory (bytes/s)
system.mem_ctrls.bw_read::cpu06.data          1692663                       # Total read bandwidth from this memory (bytes/s)
system.mem_ctrls.bw_read::cpu07.data          2115828                       # Total read bandwidth from this memory (bytes/s)
system.mem_ctrls.bw_read::cpu08.data          1692663                       # Total read bandwidth from this memory (bytes/s)
system.mem_ctrls.bw_read::cpu09.data          1692663                       # Total read bandwidth from this memory (bytes/s)
system.mem_ctrls.bw_read::cpu10.data          1692663                       # Total read bandwidth from this memory (bytes/s)
system.mem_ctrls.bw_read::cpu11.data          1692663                       # Total read bandwidth from this memory (bytes/s)
system.mem_ctrls.bw_read::cpu12.data          2538994                       # Total read bandwidth from this memory (bytes/s)
system.mem_ctrls.bw_read::cpu13.data          1692663                       # Total read bandwidth from this memory (bytes/s)
system.mem_ctrls.bw_read::cpu14.data          1692663                       # Total read bandwidth from this memory (bytes/s)
system.mem_ctrls.bw_read::cpu15.data          1692663                       # Total read bandwidth from this memory (bytes/s)
system.mem_ctrls.bw_read::cpu16.data          1692663                       # Total read bandwidth from this memory (bytes/s)
system.mem_ctrls.bw_read::cpu17.data          1692663                       # Total read bandwidth from this memory (bytes/s)
system.mem_ctrls.bw_read::cpu18.data          1692663                       # Total read bandwidth from this memory (bytes/s)
system.mem_ctrls.bw_read::cpu19.data          1692663                       # Total read bandwidth from this memory (bytes/s)
system.mem_ctrls.bw_read::cpu20.data          1692663                       # Total read bandwidth from this memory (bytes/s)
system.mem_ctrls.bw_read::cpu21.data          1692663                       # Total read bandwidth from this memory (bytes/s)
system.mem_ctrls.bw_read::cpu22.data          1692663                       # Total read bandwidth from this memory (bytes/s)
system.mem_ctrls.bw_read::cpu23.inst           423166                       # Total read bandwidth from this memory (bytes/s)
system.mem_ctrls.bw_read::cpu23.data          1692663                       # Total read bandwidth from this memory (bytes/s)
system.mem_ctrls.bw_read::cpu24.data          1692663                       # Total read bandwidth from this memory (bytes/s)
system.mem_ctrls.bw_read::cpu25.data          1692663                       # Total read bandwidth from this memory (bytes/s)
system.mem_ctrls.bw_read::cpu26.data          1692663                       # Total read bandwidth from this memory (bytes/s)
system.mem_ctrls.bw_read::cpu27.data          1692663                       # Total read bandwidth from this memory (bytes/s)
system.mem_ctrls.bw_read::cpu28.data          2115828                       # Total read bandwidth from this memory (bytes/s)
system.mem_ctrls.bw_read::cpu29.data          1692663                       # Total read bandwidth from this memory (bytes/s)
system.mem_ctrls.bw_read::cpu30.data          1692663                       # Total read bandwidth from this memory (bytes/s)
system.mem_ctrls.bw_read::cpu31.inst           423166                       # Total read bandwidth from this memory (bytes/s)
system.mem_ctrls.bw_read::cpu31.data          1692663                       # Total read bandwidth from this memory (bytes/s)
system.mem_ctrls.bw_read::total            1105308746                       # Total read bandwidth from this memory (bytes/s)
system.mem_ctrls.bw_inst_read::cpu00.inst    233164287                       # Instruction read bandwidth from this memory (bytes/s)
system.mem_ctrls.bw_inst_read::cpu01.inst      5924319                       # Instruction read bandwidth from this memory (bytes/s)
system.mem_ctrls.bw_inst_read::cpu02.inst      4231657                       # Instruction read bandwidth from this memory (bytes/s)
system.mem_ctrls.bw_inst_read::cpu03.inst      2115828                       # Instruction read bandwidth from this memory (bytes/s)
system.mem_ctrls.bw_inst_read::cpu04.inst       423166                       # Instruction read bandwidth from this memory (bytes/s)
system.mem_ctrls.bw_inst_read::cpu05.inst      1269497                       # Instruction read bandwidth from this memory (bytes/s)
system.mem_ctrls.bw_inst_read::cpu23.inst       423166                       # Instruction read bandwidth from this memory (bytes/s)
system.mem_ctrls.bw_inst_read::cpu31.inst       423166                       # Instruction read bandwidth from this memory (bytes/s)
system.mem_ctrls.bw_inst_read::total        247975086                       # Instruction read bandwidth from this memory (bytes/s)
system.mem_ctrls.bw_write::writebacks         6770651                       # Write bandwidth from this memory (bytes/s)
system.mem_ctrls.bw_write::total              6770651                       # Write bandwidth from this memory (bytes/s)
system.mem_ctrls.bw_total::writebacks         6770651                       # Total bandwidth to/from this memory (bytes/s)
system.mem_ctrls.bw_total::cpu00.inst       233164287                       # Total bandwidth to/from this memory (bytes/s)
system.mem_ctrls.bw_total::cpu00.data       802745287                       # Total bandwidth to/from this memory (bytes/s)
system.mem_ctrls.bw_total::cpu01.inst         5924319                       # Total bandwidth to/from this memory (bytes/s)
system.mem_ctrls.bw_total::cpu01.data         1692663                       # Total bandwidth to/from this memory (bytes/s)
system.mem_ctrls.bw_total::cpu02.inst         4231657                       # Total bandwidth to/from this memory (bytes/s)
system.mem_ctrls.bw_total::cpu02.data         1692663                       # Total bandwidth to/from this memory (bytes/s)
system.mem_ctrls.bw_total::cpu03.inst         2115828                       # Total bandwidth to/from this memory (bytes/s)
system.mem_ctrls.bw_total::cpu03.data         2115828                       # Total bandwidth to/from this memory (bytes/s)
system.mem_ctrls.bw_total::cpu04.inst          423166                       # Total bandwidth to/from this memory (bytes/s)
system.mem_ctrls.bw_total::cpu04.data         1692663                       # Total bandwidth to/from this memory (bytes/s)
system.mem_ctrls.bw_total::cpu05.inst         1269497                       # Total bandwidth to/from this memory (bytes/s)
system.mem_ctrls.bw_total::cpu05.data         1692663                       # Total bandwidth to/from this memory (bytes/s)
system.mem_ctrls.bw_total::cpu06.data         1692663                       # Total bandwidth to/from this memory (bytes/s)
system.mem_ctrls.bw_total::cpu07.data         2115828                       # Total bandwidth to/from this memory (bytes/s)
system.mem_ctrls.bw_total::cpu08.data         1692663                       # Total bandwidth to/from this memory (bytes/s)
system.mem_ctrls.bw_total::cpu09.data         1692663                       # Total bandwidth to/from this memory (bytes/s)
system.mem_ctrls.bw_total::cpu10.data         1692663                       # Total bandwidth to/from this memory (bytes/s)
system.mem_ctrls.bw_total::cpu11.data         1692663                       # Total bandwidth to/from this memory (bytes/s)
system.mem_ctrls.bw_total::cpu12.data         2538994                       # Total bandwidth to/from this memory (bytes/s)
system.mem_ctrls.bw_total::cpu13.data         1692663                       # Total bandwidth to/from this memory (bytes/s)
system.mem_ctrls.bw_total::cpu14.data         1692663                       # Total bandwidth to/from this memory (bytes/s)
system.mem_ctrls.bw_total::cpu15.data         1692663                       # Total bandwidth to/from this memory (bytes/s)
system.mem_ctrls.bw_total::cpu16.data         1692663                       # Total bandwidth to/from this memory (bytes/s)
system.mem_ctrls.bw_total::cpu17.data         1692663                       # Total bandwidth to/from this memory (bytes/s)
system.mem_ctrls.bw_total::cpu18.data         1692663                       # Total bandwidth to/from this memory (bytes/s)
system.mem_ctrls.bw_total::cpu19.data         1692663                       # Total bandwidth to/from this memory (bytes/s)
system.mem_ctrls.bw_total::cpu20.data         1692663                       # Total bandwidth to/from this memory (bytes/s)
system.mem_ctrls.bw_total::cpu21.data         1692663                       # Total bandwidth to/from this memory (bytes/s)
system.mem_ctrls.bw_total::cpu22.data         1692663                       # Total bandwidth to/from this memory (bytes/s)
system.mem_ctrls.bw_total::cpu23.inst          423166                       # Total bandwidth to/from this memory (bytes/s)
system.mem_ctrls.bw_total::cpu23.data         1692663                       # Total bandwidth to/from this memory (bytes/s)
system.mem_ctrls.bw_total::cpu24.data         1692663                       # Total bandwidth to/from this memory (bytes/s)
system.mem_ctrls.bw_total::cpu25.data         1692663                       # Total bandwidth to/from this memory (bytes/s)
system.mem_ctrls.bw_total::cpu26.data         1692663                       # Total bandwidth to/from this memory (bytes/s)
system.mem_ctrls.bw_total::cpu27.data         1692663                       # Total bandwidth to/from this memory (bytes/s)
system.mem_ctrls.bw_total::cpu28.data         2115828                       # Total bandwidth to/from this memory (bytes/s)
system.mem_ctrls.bw_total::cpu29.data         1692663                       # Total bandwidth to/from this memory (bytes/s)
system.mem_ctrls.bw_total::cpu30.data         1692663                       # Total bandwidth to/from this memory (bytes/s)
system.mem_ctrls.bw_total::cpu31.inst          423166                       # Total bandwidth to/from this memory (bytes/s)
system.mem_ctrls.bw_total::cpu31.data         1692663                       # Total bandwidth to/from this memory (bytes/s)
system.mem_ctrls.bw_total::total           1112079396                       # Total bandwidth to/from this memory (bytes/s)
system.mem_ctrls.readReqs                        2612                       # Number of read requests accepted
system.mem_ctrls.writeReqs                         16                       # Number of write requests accepted
system.mem_ctrls.readBursts                      2612                       # Number of DRAM read bursts, including those serviced by the write queue
system.mem_ctrls.writeBursts                       16                       # Number of DRAM write bursts, including those merged in the write queue
system.mem_ctrls.bytesReadDRAM                 167104                       # Total number of bytes read from DRAM
system.mem_ctrls.bytesReadWrQ                      64                       # Total number of bytes read from write queue
system.mem_ctrls.bytesWritten                       0                       # Total number of bytes written to DRAM
system.mem_ctrls.bytesReadSys                  167168                       # Total read bytes from the system interface side
system.mem_ctrls.bytesWrittenSys                 1024                       # Total written bytes from the system interface side
system.mem_ctrls.servicedByWrQ                      1                       # Number of DRAM read bursts serviced by the write queue
system.mem_ctrls.mergedWrBursts                     0                       # Number of DRAM write bursts merged with an existing one
system.mem_ctrls.neitherReadNorWriteReqs            7                       # Number of requests that are neither read nor write
system.mem_ctrls.perBankRdBursts::0               132                       # Per bank write bursts
system.mem_ctrls.perBankRdBursts::1               142                       # Per bank write bursts
system.mem_ctrls.perBankRdBursts::2               144                       # Per bank write bursts
system.mem_ctrls.perBankRdBursts::3               290                       # Per bank write bursts
system.mem_ctrls.perBankRdBursts::4               240                       # Per bank write bursts
system.mem_ctrls.perBankRdBursts::5               150                       # Per bank write bursts
system.mem_ctrls.perBankRdBursts::6               224                       # Per bank write bursts
system.mem_ctrls.perBankRdBursts::7               162                       # Per bank write bursts
system.mem_ctrls.perBankRdBursts::8               142                       # Per bank write bursts
system.mem_ctrls.perBankRdBursts::9               138                       # Per bank write bursts
system.mem_ctrls.perBankRdBursts::10              128                       # Per bank write bursts
system.mem_ctrls.perBankRdBursts::11              142                       # Per bank write bursts
system.mem_ctrls.perBankRdBursts::12              134                       # Per bank write bursts
system.mem_ctrls.perBankRdBursts::13              161                       # Per bank write bursts
system.mem_ctrls.perBankRdBursts::14              166                       # Per bank write bursts
system.mem_ctrls.perBankRdBursts::15              116                       # Per bank write bursts
system.mem_ctrls.perBankWrBursts::0                 0                       # Per bank write bursts
system.mem_ctrls.perBankWrBursts::1                 0                       # Per bank write bursts
system.mem_ctrls.perBankWrBursts::2                 0                       # Per bank write bursts
system.mem_ctrls.perBankWrBursts::3                 0                       # Per bank write bursts
system.mem_ctrls.perBankWrBursts::4                 0                       # Per bank write bursts
system.mem_ctrls.perBankWrBursts::5                 0                       # Per bank write bursts
system.mem_ctrls.perBankWrBursts::6                 0                       # Per bank write bursts
system.mem_ctrls.perBankWrBursts::7                 0                       # Per bank write bursts
system.mem_ctrls.perBankWrBursts::8                 0                       # Per bank write bursts
system.mem_ctrls.perBankWrBursts::9                 0                       # Per bank write bursts
system.mem_ctrls.perBankWrBursts::10                0                       # Per bank write bursts
system.mem_ctrls.perBankWrBursts::11                0                       # Per bank write bursts
system.mem_ctrls.perBankWrBursts::12                0                       # Per bank write bursts
system.mem_ctrls.perBankWrBursts::13                0                       # Per bank write bursts
system.mem_ctrls.perBankWrBursts::14                0                       # Per bank write bursts
system.mem_ctrls.perBankWrBursts::15                0                       # Per bank write bursts
system.mem_ctrls.numRdRetry                         0                       # Number of times read queue was full causing retry
system.mem_ctrls.numWrRetry                         0                       # Number of times write queue was full causing retry
system.mem_ctrls.totGap                     151195500                       # Total gap between requests
system.mem_ctrls.readPktSize::0                     0                       # Read request sizes (log2)
system.mem_ctrls.readPktSize::1                     0                       # Read request sizes (log2)
system.mem_ctrls.readPktSize::2                     0                       # Read request sizes (log2)
system.mem_ctrls.readPktSize::3                     0                       # Read request sizes (log2)
system.mem_ctrls.readPktSize::4                     0                       # Read request sizes (log2)
system.mem_ctrls.readPktSize::5                     0                       # Read request sizes (log2)
system.mem_ctrls.readPktSize::6                  2612                       # Read request sizes (log2)
system.mem_ctrls.writePktSize::0                    0                       # Write request sizes (log2)
system.mem_ctrls.writePktSize::1                    0                       # Write request sizes (log2)
system.mem_ctrls.writePktSize::2                    0                       # Write request sizes (log2)
system.mem_ctrls.writePktSize::3                    0                       # Write request sizes (log2)
system.mem_ctrls.writePktSize::4                    0                       # Write request sizes (log2)
system.mem_ctrls.writePktSize::5                    0                       # Write request sizes (log2)
system.mem_ctrls.writePktSize::6                   16                       # Write request sizes (log2)
system.mem_ctrls.rdQLenPdf::0                    1419                       # What read queue length does an incoming req see
system.mem_ctrls.rdQLenPdf::1                     976                       # What read queue length does an incoming req see
system.mem_ctrls.rdQLenPdf::2                     128                       # What read queue length does an incoming req see
system.mem_ctrls.rdQLenPdf::3                      41                       # What read queue length does an incoming req see
system.mem_ctrls.rdQLenPdf::4                      11                       # What read queue length does an incoming req see
system.mem_ctrls.rdQLenPdf::5                       5                       # What read queue length does an incoming req see
system.mem_ctrls.rdQLenPdf::6                       2                       # What read queue length does an incoming req see
system.mem_ctrls.rdQLenPdf::7                       1                       # What read queue length does an incoming req see
system.mem_ctrls.rdQLenPdf::8                       1                       # What read queue length does an incoming req see
system.mem_ctrls.rdQLenPdf::9                       2                       # What read queue length does an incoming req see
system.mem_ctrls.rdQLenPdf::10                      2                       # What read queue length does an incoming req see
system.mem_ctrls.rdQLenPdf::11                      1                       # What read queue length does an incoming req see
system.mem_ctrls.rdQLenPdf::12                      1                       # What read queue length does an incoming req see
system.mem_ctrls.rdQLenPdf::13                      2                       # What read queue length does an incoming req see
system.mem_ctrls.rdQLenPdf::14                      1                       # What read queue length does an incoming req see
system.mem_ctrls.rdQLenPdf::15                      2                       # What read queue length does an incoming req see
system.mem_ctrls.rdQLenPdf::16                      4                       # What read queue length does an incoming req see
system.mem_ctrls.rdQLenPdf::17                      2                       # What read queue length does an incoming req see
system.mem_ctrls.rdQLenPdf::18                      1                       # What read queue length does an incoming req see
system.mem_ctrls.rdQLenPdf::19                      9                       # What read queue length does an incoming req see
system.mem_ctrls.rdQLenPdf::20                      0                       # What read queue length does an incoming req see
system.mem_ctrls.rdQLenPdf::21                      0                       # What read queue length does an incoming req see
system.mem_ctrls.rdQLenPdf::22                      0                       # What read queue length does an incoming req see
system.mem_ctrls.rdQLenPdf::23                      0                       # What read queue length does an incoming req see
system.mem_ctrls.rdQLenPdf::24                      0                       # What read queue length does an incoming req see
system.mem_ctrls.rdQLenPdf::25                      0                       # What read queue length does an incoming req see
system.mem_ctrls.rdQLenPdf::26                      0                       # What read queue length does an incoming req see
system.mem_ctrls.rdQLenPdf::27                      0                       # What read queue length does an incoming req see
system.mem_ctrls.rdQLenPdf::28                      0                       # What read queue length does an incoming req see
system.mem_ctrls.rdQLenPdf::29                      0                       # What read queue length does an incoming req see
system.mem_ctrls.rdQLenPdf::30                      0                       # What read queue length does an incoming req see
system.mem_ctrls.rdQLenPdf::31                      0                       # What read queue length does an incoming req see
system.mem_ctrls.wrQLenPdf::0                       1                       # What write queue length does an incoming req see
system.mem_ctrls.wrQLenPdf::1                       1                       # What write queue length does an incoming req see
system.mem_ctrls.wrQLenPdf::2                       1                       # What write queue length does an incoming req see
system.mem_ctrls.wrQLenPdf::3                       1                       # What write queue length does an incoming req see
system.mem_ctrls.wrQLenPdf::4                       1                       # What write queue length does an incoming req see
system.mem_ctrls.wrQLenPdf::5                       1                       # What write queue length does an incoming req see
system.mem_ctrls.wrQLenPdf::6                       1                       # What write queue length does an incoming req see
system.mem_ctrls.wrQLenPdf::7                       1                       # What write queue length does an incoming req see
system.mem_ctrls.wrQLenPdf::8                       1                       # What write queue length does an incoming req see
system.mem_ctrls.wrQLenPdf::9                       1                       # What write queue length does an incoming req see
system.mem_ctrls.wrQLenPdf::10                      1                       # What write queue length does an incoming req see
system.mem_ctrls.wrQLenPdf::11                      1                       # What write queue length does an incoming req see
system.mem_ctrls.wrQLenPdf::12                      1                       # What write queue length does an incoming req see
system.mem_ctrls.wrQLenPdf::13                      1                       # What write queue length does an incoming req see
system.mem_ctrls.wrQLenPdf::14                      1                       # What write queue length does an incoming req see
system.mem_ctrls.wrQLenPdf::15                      1                       # What write queue length does an incoming req see
system.mem_ctrls.wrQLenPdf::16                      0                       # What write queue length does an incoming req see
system.mem_ctrls.wrQLenPdf::17                      0                       # What write queue length does an incoming req see
system.mem_ctrls.wrQLenPdf::18                      0                       # What write queue length does an incoming req see
system.mem_ctrls.wrQLenPdf::19                      0                       # What write queue length does an incoming req see
system.mem_ctrls.wrQLenPdf::20                      0                       # What write queue length does an incoming req see
system.mem_ctrls.wrQLenPdf::21                      0                       # What write queue length does an incoming req see
system.mem_ctrls.wrQLenPdf::22                      0                       # What write queue length does an incoming req see
system.mem_ctrls.wrQLenPdf::23                      0                       # What write queue length does an incoming req see
system.mem_ctrls.wrQLenPdf::24                      0                       # What write queue length does an incoming req see
system.mem_ctrls.wrQLenPdf::25                      0                       # What write queue length does an incoming req see
system.mem_ctrls.wrQLenPdf::26                      0                       # What write queue length does an incoming req see
system.mem_ctrls.wrQLenPdf::27                      0                       # What write queue length does an incoming req see
system.mem_ctrls.wrQLenPdf::28                      0                       # What write queue length does an incoming req see
system.mem_ctrls.wrQLenPdf::29                      0                       # What write queue length does an incoming req see
system.mem_ctrls.wrQLenPdf::30                      0                       # What write queue length does an incoming req see
system.mem_ctrls.wrQLenPdf::31                      0                       # What write queue length does an incoming req see
system.mem_ctrls.wrQLenPdf::32                      0                       # What write queue length does an incoming req see
system.mem_ctrls.wrQLenPdf::33                      0                       # What write queue length does an incoming req see
system.mem_ctrls.wrQLenPdf::34                      0                       # What write queue length does an incoming req see
system.mem_ctrls.wrQLenPdf::35                      0                       # What write queue length does an incoming req see
system.mem_ctrls.wrQLenPdf::36                      0                       # What write queue length does an incoming req see
system.mem_ctrls.wrQLenPdf::37                      0                       # What write queue length does an incoming req see
system.mem_ctrls.wrQLenPdf::38                      0                       # What write queue length does an incoming req see
system.mem_ctrls.wrQLenPdf::39                      0                       # What write queue length does an incoming req see
system.mem_ctrls.wrQLenPdf::40                      0                       # What write queue length does an incoming req see
system.mem_ctrls.wrQLenPdf::41                      0                       # What write queue length does an incoming req see
system.mem_ctrls.wrQLenPdf::42                      0                       # What write queue length does an incoming req see
system.mem_ctrls.wrQLenPdf::43                      0                       # What write queue length does an incoming req see
system.mem_ctrls.wrQLenPdf::44                      0                       # What write queue length does an incoming req see
system.mem_ctrls.wrQLenPdf::45                      0                       # What write queue length does an incoming req see
system.mem_ctrls.wrQLenPdf::46                      0                       # What write queue length does an incoming req see
system.mem_ctrls.wrQLenPdf::47                      0                       # What write queue length does an incoming req see
system.mem_ctrls.wrQLenPdf::48                      0                       # What write queue length does an incoming req see
system.mem_ctrls.wrQLenPdf::49                      0                       # What write queue length does an incoming req see
system.mem_ctrls.wrQLenPdf::50                      0                       # What write queue length does an incoming req see
system.mem_ctrls.wrQLenPdf::51                      0                       # What write queue length does an incoming req see
system.mem_ctrls.wrQLenPdf::52                      0                       # What write queue length does an incoming req see
system.mem_ctrls.wrQLenPdf::53                      0                       # What write queue length does an incoming req see
system.mem_ctrls.wrQLenPdf::54                      0                       # What write queue length does an incoming req see
system.mem_ctrls.wrQLenPdf::55                      0                       # What write queue length does an incoming req see
system.mem_ctrls.wrQLenPdf::56                      0                       # What write queue length does an incoming req see
system.mem_ctrls.wrQLenPdf::57                      0                       # What write queue length does an incoming req see
system.mem_ctrls.wrQLenPdf::58                      0                       # What write queue length does an incoming req see
system.mem_ctrls.wrQLenPdf::59                      0                       # What write queue length does an incoming req see
system.mem_ctrls.wrQLenPdf::60                      0                       # What write queue length does an incoming req see
system.mem_ctrls.wrQLenPdf::61                      0                       # What write queue length does an incoming req see
system.mem_ctrls.wrQLenPdf::62                      0                       # What write queue length does an incoming req see
system.mem_ctrls.wrQLenPdf::63                      0                       # What write queue length does an incoming req see
system.mem_ctrls.bytesPerActivate::samples          474                       # Bytes accessed per row activation
system.mem_ctrls.bytesPerActivate::mean    349.029536                       # Bytes accessed per row activation
system.mem_ctrls.bytesPerActivate::gmean   173.910207                       # Bytes accessed per row activation
system.mem_ctrls.bytesPerActivate::stdev   395.459498                       # Bytes accessed per row activation
system.mem_ctrls.bytesPerActivate::0-127          242     51.05%     51.05% # Bytes accessed per row activation
system.mem_ctrls.bytesPerActivate::128-255           53     11.18%     62.24% # Bytes accessed per row activation
system.mem_ctrls.bytesPerActivate::256-383           31      6.54%     68.78% # Bytes accessed per row activation
system.mem_ctrls.bytesPerActivate::384-511           13      2.74%     71.52% # Bytes accessed per row activation
system.mem_ctrls.bytesPerActivate::512-639            9      1.90%     73.42% # Bytes accessed per row activation
system.mem_ctrls.bytesPerActivate::640-767            8      1.69%     75.11% # Bytes accessed per row activation
system.mem_ctrls.bytesPerActivate::768-895            8      1.69%     76.79% # Bytes accessed per row activation
system.mem_ctrls.bytesPerActivate::896-1023            8      1.69%     78.48% # Bytes accessed per row activation
system.mem_ctrls.bytesPerActivate::1024-1151          102     21.52%    100.00% # Bytes accessed per row activation
system.mem_ctrls.bytesPerActivate::total          474                       # Bytes accessed per row activation
system.mem_ctrls.totQLat                     41407251                       # Total ticks spent queuing
system.mem_ctrls.totMemAccLat                90363501                       # Total ticks spent from burst creation until serviced by the DRAM
system.mem_ctrls.totBusLat                   13055000                       # Total ticks spent in databus transfers
system.mem_ctrls.avgQLat                     15858.77                       # Average queueing delay per DRAM burst
system.mem_ctrls.avgBusLat                    5000.00                       # Average bus latency per DRAM burst
system.mem_ctrls.avgMemAccLat                34608.77                       # Average memory access latency per DRAM burst
system.mem_ctrls.avgRdBW                      1104.89                       # Average DRAM read bandwidth in MiByte/s
system.mem_ctrls.avgWrBW                         0.00                       # Average achieved write bandwidth in MiByte/s
system.mem_ctrls.avgRdBWSys                   1105.31                       # Average system read bandwidth in MiByte/s
system.mem_ctrls.avgWrBWSys                      6.77                       # Average system write bandwidth in MiByte/s
system.mem_ctrls.peakBW                      12800.00                       # Theoretical peak bandwidth in MiByte/s
system.mem_ctrls.busUtil                         8.63                       # Data bus utilization in percentage
system.mem_ctrls.busUtilRead                     8.63                       # Data bus utilization in percentage for reads
system.mem_ctrls.busUtilWrite                    0.00                       # Data bus utilization in percentage for writes
system.mem_ctrls.avgRdQLen                       1.77                       # Average read queue length when enqueuing
system.mem_ctrls.avgWrQLen                       3.16                       # Average write queue length when enqueuing
system.mem_ctrls.readRowHits                     2127                       # Number of row buffer hits during reads
system.mem_ctrls.writeRowHits                       0                       # Number of row buffer hits during writes
system.mem_ctrls.readRowHitRate                 81.46                       # Row buffer hit rate for reads
system.mem_ctrls.writeRowHitRate                 0.00                       # Row buffer hit rate for writes
system.mem_ctrls.avgGap                      57532.53                       # Average gap between requests
system.mem_ctrls.pageHitRate                    80.97                       # Row buffer hit rate, read and write combined
system.mem_ctrls_0.actEnergy                  2812320                       # Energy for activate commands per rank (pJ)
system.mem_ctrls_0.preEnergy                  1534500                       # Energy for precharge commands per rank (pJ)
system.mem_ctrls_0.readEnergy                11473800                       # Energy for read commands per rank (pJ)
system.mem_ctrls_0.writeEnergy                      0                       # Energy for write commands per rank (pJ)
system.mem_ctrls_0.refreshEnergy              9662640                       # Energy for refresh commands per rank (pJ)
system.mem_ctrls_0.actBackEnergy             69287490                       # Energy for active background per rank (pJ)
system.mem_ctrls_0.preBackEnergy             28140750                       # Energy for precharge background per rank (pJ)
system.mem_ctrls_0.totalEnergy              122911500                       # Total energy per rank (pJ)
system.mem_ctrls_0.averagePower            829.369344                       # Core power per rank (mW)
system.mem_ctrls_0.memoryStateTime::IDLE     46325000                       # Time in different power states
system.mem_ctrls_0.memoryStateTime::REF       4940000                       # Time in different power states
system.mem_ctrls_0.memoryStateTime::PRE_PDN            0                       # Time in different power states
system.mem_ctrls_0.memoryStateTime::ACT      96979000                       # Time in different power states
system.mem_ctrls_0.memoryStateTime::ACT_PDN            0                       # Time in different power states
system.mem_ctrls_1.actEnergy                   725760                       # Energy for activate commands per rank (pJ)
system.mem_ctrls_1.preEnergy                   396000                       # Energy for precharge commands per rank (pJ)
system.mem_ctrls_1.readEnergy                 8509800                       # Energy for read commands per rank (pJ)
system.mem_ctrls_1.writeEnergy                      0                       # Energy for write commands per rank (pJ)
system.mem_ctrls_1.refreshEnergy              9662640                       # Energy for refresh commands per rank (pJ)
system.mem_ctrls_1.actBackEnergy             63499995                       # Energy for active background per rank (pJ)
system.mem_ctrls_1.preBackEnergy             33209250                       # Energy for precharge background per rank (pJ)
system.mem_ctrls_1.totalEnergy              116003445                       # Total energy per rank (pJ)
system.mem_ctrls_1.averagePower            782.828525                       # Core power per rank (mW)
system.mem_ctrls_1.memoryStateTime::IDLE     55614500                       # Time in different power states
system.mem_ctrls_1.memoryStateTime::REF       4940000                       # Time in different power states
system.mem_ctrls_1.memoryStateTime::PRE_PDN            0                       # Time in different power states
system.mem_ctrls_1.memoryStateTime::ACT      88601000                       # Time in different power states
system.mem_ctrls_1.memoryStateTime::ACT_PDN            0                       # Time in different power states
system.cpu00.branchPred.lookups                 39783                       # Number of BP lookups
system.cpu00.branchPred.condPredicted           36788                       # Number of conditional branches predicted
system.cpu00.branchPred.condIncorrect            1343                       # Number of conditional branches incorrect
system.cpu00.branchPred.BTBLookups              32320                       # Number of BTB lookups
system.cpu00.branchPred.BTBHits                 28500                       # Number of BTB hits
system.cpu00.branchPred.BTBCorrect                  0                       # Number of correct BTB predictions (this stat may not work properly.
system.cpu00.branchPred.BTBHitPct           88.180693                       # BTB Hit Percentage
system.cpu00.branchPred.usedRAS                  1163                       # Number of times the RAS was used to get a target.
system.cpu00.branchPred.RASInCorrect               16                       # Number of incorrect RAS predictions.
system.cpu_voltage_domain.voltage                   1                       # Voltage in Volts
system.cpu_clk_domain.clock                       500                       # Clock period in ticks
system.cpu00.dstage2_mmu.stage2_tlb.walker.walks            0                       # Table walker walks requested
system.cpu00.dstage2_mmu.stage2_tlb.walker.walkRequestOrigin_Requested::Data            0                       # Table walker requests started/completed, data/inst
system.cpu00.dstage2_mmu.stage2_tlb.walker.walkRequestOrigin_Requested::Inst            0                       # Table walker requests started/completed, data/inst
system.cpu00.dstage2_mmu.stage2_tlb.walker.walkRequestOrigin_Requested::total            0                       # Table walker requests started/completed, data/inst
system.cpu00.dstage2_mmu.stage2_tlb.walker.walkRequestOrigin_Completed::Data            0                       # Table walker requests started/completed, data/inst
system.cpu00.dstage2_mmu.stage2_tlb.walker.walkRequestOrigin_Completed::Inst            0                       # Table walker requests started/completed, data/inst
system.cpu00.dstage2_mmu.stage2_tlb.walker.walkRequestOrigin_Completed::total            0                       # Table walker requests started/completed, data/inst
system.cpu00.dstage2_mmu.stage2_tlb.walker.walkRequestOrigin::total            0                       # Table walker requests started/completed, data/inst
system.cpu00.dstage2_mmu.stage2_tlb.inst_hits            0                       # ITB inst hits
system.cpu00.dstage2_mmu.stage2_tlb.inst_misses            0                       # ITB inst misses
system.cpu00.dstage2_mmu.stage2_tlb.read_hits            0                       # DTB read hits
system.cpu00.dstage2_mmu.stage2_tlb.read_misses            0                       # DTB read misses
system.cpu00.dstage2_mmu.stage2_tlb.write_hits            0                       # DTB write hits
system.cpu00.dstage2_mmu.stage2_tlb.write_misses            0                       # DTB write misses
system.cpu00.dstage2_mmu.stage2_tlb.flush_tlb            0                       # Number of times complete TLB was flushed
system.cpu00.dstage2_mmu.stage2_tlb.flush_tlb_mva            0                       # Number of times TLB was flushed by MVA
system.cpu00.dstage2_mmu.stage2_tlb.flush_tlb_mva_asid            0                       # Number of times TLB was flushed by MVA & ASID
system.cpu00.dstage2_mmu.stage2_tlb.flush_tlb_asid            0                       # Number of times TLB was flushed by ASID
system.cpu00.dstage2_mmu.stage2_tlb.flush_entries            0                       # Number of entries that have been flushed from TLB
system.cpu00.dstage2_mmu.stage2_tlb.align_faults            0                       # Number of TLB faults due to alignment restrictions
system.cpu00.dstage2_mmu.stage2_tlb.prefetch_faults            0                       # Number of TLB faults due to prefetch
system.cpu00.dstage2_mmu.stage2_tlb.domain_faults            0                       # Number of TLB faults due to domain restrictions
system.cpu00.dstage2_mmu.stage2_tlb.perms_faults            0                       # Number of TLB faults due to permissions restrictions
system.cpu00.dstage2_mmu.stage2_tlb.read_accesses            0                       # DTB read accesses
system.cpu00.dstage2_mmu.stage2_tlb.write_accesses            0                       # DTB write accesses
system.cpu00.dstage2_mmu.stage2_tlb.inst_accesses            0                       # ITB inst accesses
system.cpu00.dstage2_mmu.stage2_tlb.hits            0                       # DTB hits
system.cpu00.dstage2_mmu.stage2_tlb.misses            0                       # DTB misses
system.cpu00.dstage2_mmu.stage2_tlb.accesses            0                       # DTB accesses
system.cpu00.dtb.walker.walks                       0                       # Table walker walks requested
system.cpu00.dtb.walker.walkRequestOrigin_Requested::Data            0                       # Table walker requests started/completed, data/inst
system.cpu00.dtb.walker.walkRequestOrigin_Requested::Inst            0                       # Table walker requests started/completed, data/inst
system.cpu00.dtb.walker.walkRequestOrigin_Requested::total            0                       # Table walker requests started/completed, data/inst
system.cpu00.dtb.walker.walkRequestOrigin_Completed::Data            0                       # Table walker requests started/completed, data/inst
system.cpu00.dtb.walker.walkRequestOrigin_Completed::Inst            0                       # Table walker requests started/completed, data/inst
system.cpu00.dtb.walker.walkRequestOrigin_Completed::total            0                       # Table walker requests started/completed, data/inst
system.cpu00.dtb.walker.walkRequestOrigin::total            0                       # Table walker requests started/completed, data/inst
system.cpu00.dtb.inst_hits                          0                       # ITB inst hits
system.cpu00.dtb.inst_misses                        0                       # ITB inst misses
system.cpu00.dtb.read_hits                          0                       # DTB read hits
system.cpu00.dtb.read_misses                        0                       # DTB read misses
system.cpu00.dtb.write_hits                         0                       # DTB write hits
system.cpu00.dtb.write_misses                       0                       # DTB write misses
system.cpu00.dtb.flush_tlb                          0                       # Number of times complete TLB was flushed
system.cpu00.dtb.flush_tlb_mva                      0                       # Number of times TLB was flushed by MVA
system.cpu00.dtb.flush_tlb_mva_asid                 0                       # Number of times TLB was flushed by MVA & ASID
system.cpu00.dtb.flush_tlb_asid                     0                       # Number of times TLB was flushed by ASID
system.cpu00.dtb.flush_entries                      0                       # Number of entries that have been flushed from TLB
system.cpu00.dtb.align_faults                       0                       # Number of TLB faults due to alignment restrictions
system.cpu00.dtb.prefetch_faults                    0                       # Number of TLB faults due to prefetch
system.cpu00.dtb.domain_faults                      0                       # Number of TLB faults due to domain restrictions
system.cpu00.dtb.perms_faults                       0                       # Number of TLB faults due to permissions restrictions
system.cpu00.dtb.read_accesses                      0                       # DTB read accesses
system.cpu00.dtb.write_accesses                     0                       # DTB write accesses
system.cpu00.dtb.inst_accesses                      0                       # ITB inst accesses
system.cpu00.dtb.hits                               0                       # DTB hits
system.cpu00.dtb.misses                             0                       # DTB misses
system.cpu00.dtb.accesses                           0                       # DTB accesses
system.cpu00.istage2_mmu.stage2_tlb.walker.walks            0                       # Table walker walks requested
system.cpu00.istage2_mmu.stage2_tlb.walker.walkRequestOrigin_Requested::Data            0                       # Table walker requests started/completed, data/inst
system.cpu00.istage2_mmu.stage2_tlb.walker.walkRequestOrigin_Requested::Inst            0                       # Table walker requests started/completed, data/inst
system.cpu00.istage2_mmu.stage2_tlb.walker.walkRequestOrigin_Requested::total            0                       # Table walker requests started/completed, data/inst
system.cpu00.istage2_mmu.stage2_tlb.walker.walkRequestOrigin_Completed::Data            0                       # Table walker requests started/completed, data/inst
system.cpu00.istage2_mmu.stage2_tlb.walker.walkRequestOrigin_Completed::Inst            0                       # Table walker requests started/completed, data/inst
system.cpu00.istage2_mmu.stage2_tlb.walker.walkRequestOrigin_Completed::total            0                       # Table walker requests started/completed, data/inst
system.cpu00.istage2_mmu.stage2_tlb.walker.walkRequestOrigin::total            0                       # Table walker requests started/completed, data/inst
system.cpu00.istage2_mmu.stage2_tlb.inst_hits            0                       # ITB inst hits
system.cpu00.istage2_mmu.stage2_tlb.inst_misses            0                       # ITB inst misses
system.cpu00.istage2_mmu.stage2_tlb.read_hits            0                       # DTB read hits
system.cpu00.istage2_mmu.stage2_tlb.read_misses            0                       # DTB read misses
system.cpu00.istage2_mmu.stage2_tlb.write_hits            0                       # DTB write hits
system.cpu00.istage2_mmu.stage2_tlb.write_misses            0                       # DTB write misses
system.cpu00.istage2_mmu.stage2_tlb.flush_tlb            0                       # Number of times complete TLB was flushed
system.cpu00.istage2_mmu.stage2_tlb.flush_tlb_mva            0                       # Number of times TLB was flushed by MVA
system.cpu00.istage2_mmu.stage2_tlb.flush_tlb_mva_asid            0                       # Number of times TLB was flushed by MVA & ASID
system.cpu00.istage2_mmu.stage2_tlb.flush_tlb_asid            0                       # Number of times TLB was flushed by ASID
system.cpu00.istage2_mmu.stage2_tlb.flush_entries            0                       # Number of entries that have been flushed from TLB
system.cpu00.istage2_mmu.stage2_tlb.align_faults            0                       # Number of TLB faults due to alignment restrictions
system.cpu00.istage2_mmu.stage2_tlb.prefetch_faults            0                       # Number of TLB faults due to prefetch
system.cpu00.istage2_mmu.stage2_tlb.domain_faults            0                       # Number of TLB faults due to domain restrictions
system.cpu00.istage2_mmu.stage2_tlb.perms_faults            0                       # Number of TLB faults due to permissions restrictions
system.cpu00.istage2_mmu.stage2_tlb.read_accesses            0                       # DTB read accesses
system.cpu00.istage2_mmu.stage2_tlb.write_accesses            0                       # DTB write accesses
system.cpu00.istage2_mmu.stage2_tlb.inst_accesses            0                       # ITB inst accesses
system.cpu00.istage2_mmu.stage2_tlb.hits            0                       # DTB hits
system.cpu00.istage2_mmu.stage2_tlb.misses            0                       # DTB misses
system.cpu00.istage2_mmu.stage2_tlb.accesses            0                       # DTB accesses
system.cpu00.itb.walker.walks                       0                       # Table walker walks requested
system.cpu00.itb.walker.walkRequestOrigin_Requested::Data            0                       # Table walker requests started/completed, data/inst
system.cpu00.itb.walker.walkRequestOrigin_Requested::Inst            0                       # Table walker requests started/completed, data/inst
system.cpu00.itb.walker.walkRequestOrigin_Requested::total            0                       # Table walker requests started/completed, data/inst
system.cpu00.itb.walker.walkRequestOrigin_Completed::Data            0                       # Table walker requests started/completed, data/inst
system.cpu00.itb.walker.walkRequestOrigin_Completed::Inst            0                       # Table walker requests started/completed, data/inst
system.cpu00.itb.walker.walkRequestOrigin_Completed::total            0                       # Table walker requests started/completed, data/inst
system.cpu00.itb.walker.walkRequestOrigin::total            0                       # Table walker requests started/completed, data/inst
system.cpu00.itb.inst_hits                          0                       # ITB inst hits
system.cpu00.itb.inst_misses                        0                       # ITB inst misses
system.cpu00.itb.read_hits                          0                       # DTB read hits
system.cpu00.itb.read_misses                        0                       # DTB read misses
system.cpu00.itb.write_hits                         0                       # DTB write hits
system.cpu00.itb.write_misses                       0                       # DTB write misses
system.cpu00.itb.flush_tlb                          0                       # Number of times complete TLB was flushed
system.cpu00.itb.flush_tlb_mva                      0                       # Number of times TLB was flushed by MVA
system.cpu00.itb.flush_tlb_mva_asid                 0                       # Number of times TLB was flushed by MVA & ASID
system.cpu00.itb.flush_tlb_asid                     0                       # Number of times TLB was flushed by ASID
system.cpu00.itb.flush_entries                      0                       # Number of entries that have been flushed from TLB
system.cpu00.itb.align_faults                       0                       # Number of TLB faults due to alignment restrictions
system.cpu00.itb.prefetch_faults                    0                       # Number of TLB faults due to prefetch
system.cpu00.itb.domain_faults                      0                       # Number of TLB faults due to domain restrictions
system.cpu00.itb.perms_faults                       0                       # Number of TLB faults due to permissions restrictions
system.cpu00.itb.read_accesses                      0                       # DTB read accesses
system.cpu00.itb.write_accesses                     0                       # DTB write accesses
system.cpu00.itb.inst_accesses                      0                       # ITB inst accesses
system.cpu00.itb.hits                               0                       # DTB hits
system.cpu00.itb.misses                             0                       # DTB misses
system.cpu00.itb.accesses                           0                       # DTB accesses
system.cpu00.workload.num_syscalls                279                       # Number of system calls
system.cpu00.numCycles                         302483                       # number of cpu cycles simulated
system.cpu00.numWorkItemsStarted                    0                       # number of work items this cpu started
system.cpu00.numWorkItemsCompleted                  0                       # number of work items this cpu completed
system.cpu00.fetch.icacheStallCycles            47115                       # Number of cycles fetch is stalled on an Icache miss
system.cpu00.fetch.Insts                       332321                       # Number of instructions fetch has processed
system.cpu00.fetch.Branches                     39783                       # Number of branches that fetch encountered
system.cpu00.fetch.predictedBranches            29663                       # Number of branches that fetch has predicted taken
system.cpu00.fetch.Cycles                      208970                       # Number of cycles fetch has run and was not squashing or blocked
system.cpu00.fetch.SquashCycles                  2929                       # Number of cycles fetch has spent squashing
system.cpu00.fetch.MiscStallCycles                  1                       # Number of cycles fetch has spent waiting on interrupts, or bad addresses, or out of MSHRs
system.cpu00.fetch.PendingTrapStallCycles            4                       # Number of stall cycles due to pending traps
system.cpu00.fetch.CacheLines                   32455                       # Number of cache lines fetched
system.cpu00.fetch.IcacheSquashes                 790                       # Number of outstanding Icache misses that were squashed
system.cpu00.fetch.rateDist::samples           257554                       # Number of instructions fetched each cycle (Total)
system.cpu00.fetch.rateDist::mean            1.422498                       # Number of instructions fetched each cycle (Total)
system.cpu00.fetch.rateDist::stdev           2.823992                       # Number of instructions fetched each cycle (Total)
system.cpu00.fetch.rateDist::underflows             0      0.00%      0.00% # Number of instructions fetched each cycle (Total)
system.cpu00.fetch.rateDist::0                 197852     76.82%     76.82% # Number of instructions fetched each cycle (Total)
system.cpu00.fetch.rateDist::1                   3170      1.23%     78.05% # Number of instructions fetched each cycle (Total)
system.cpu00.fetch.rateDist::2                   5749      2.23%     80.28% # Number of instructions fetched each cycle (Total)
system.cpu00.fetch.rateDist::3                   1436      0.56%     80.84% # Number of instructions fetched each cycle (Total)
system.cpu00.fetch.rateDist::4                   5904      2.29%     83.13% # Number of instructions fetched each cycle (Total)
system.cpu00.fetch.rateDist::5                   1124      0.44%     83.57% # Number of instructions fetched each cycle (Total)
system.cpu00.fetch.rateDist::6                   5484      2.13%     85.70% # Number of instructions fetched each cycle (Total)
system.cpu00.fetch.rateDist::7                   9426      3.66%     89.36% # Number of instructions fetched each cycle (Total)
system.cpu00.fetch.rateDist::8                  27409     10.64%    100.00% # Number of instructions fetched each cycle (Total)
system.cpu00.fetch.rateDist::overflows              0      0.00%    100.00% # Number of instructions fetched each cycle (Total)
system.cpu00.fetch.rateDist::min_value              0                       # Number of instructions fetched each cycle (Total)
system.cpu00.fetch.rateDist::max_value              8                       # Number of instructions fetched each cycle (Total)
system.cpu00.fetch.rateDist::total             257554                       # Number of instructions fetched each cycle (Total)
system.cpu00.fetch.branchRate                0.131521                       # Number of branch fetches per cycle
system.cpu00.fetch.rate                      1.098644                       # Number of inst fetches per cycle
system.cpu00.decode.IdleCycles                  44175                       # Number of cycles decode is idle
system.cpu00.decode.BlockedCycles              160984                       # Number of cycles decode is blocked
system.cpu00.decode.RunCycles                   40855                       # Number of cycles decode is running
system.cpu00.decode.UnblockCycles               10425                       # Number of cycles decode is unblocking
system.cpu00.decode.SquashCycles                 1115                       # Number of cycles decode is squashing
system.cpu00.decode.BranchResolved               1343                       # Number of times decode resolved a branch
system.cpu00.decode.BranchMispred                 361                       # Number of times decode detected a branch misprediction
system.cpu00.decode.DecodedInsts               354145                       # Number of instructions handled by decode
system.cpu00.decode.SquashedInsts                1346                       # Number of squashed instructions handled by decode
system.cpu00.rename.SquashCycles                 1115                       # Number of cycles rename is squashing
system.cpu00.rename.IdleCycles                  47997                       # Number of cycles rename is idle
system.cpu00.rename.BlockCycles                  5349                       # Number of cycles rename is blocking
system.cpu00.rename.serializeStallCycles        21221                       # count of cycles rename stalled for serializing inst
system.cpu00.rename.RunCycles                   47350                       # Number of cycles rename is running
system.cpu00.rename.UnblockCycles              134522                       # Number of cycles rename is unblocking
system.cpu00.rename.RenamedInsts               350840                       # Number of instructions processed by rename
system.cpu00.rename.ROBFullEvents                  12                       # Number of times rename has blocked due to ROB full
system.cpu00.rename.IQFullEvents                 5073                       # Number of times rename has blocked due to IQ full
system.cpu00.rename.LQFullEvents                 3451                       # Number of times rename has blocked due to LQ full
system.cpu00.rename.SQFullEvents               123804                       # Number of times rename has blocked due to SQ full
system.cpu00.rename.RenamedOperands            430652                       # Number of destination operands rename has renamed
system.cpu00.rename.RenameLookups             1747967                       # Number of register rename lookups that rename has made
system.cpu00.rename.int_rename_lookups         551723                       # Number of integer rename lookups
system.cpu00.rename.fp_rename_lookups              22                       # Number of floating rename lookups
system.cpu00.rename.CommittedMaps              400347                       # Number of HB maps that are committed
system.cpu00.rename.UndoneMaps                  30305                       # Number of HB maps that are undone due to squashing
system.cpu00.rename.serializingInsts              185                       # count of serializing insts renamed
system.cpu00.rename.tempSerializingInsts          184                       # count of temporary serializing insts renamed
system.cpu00.rename.skidInsts                   45901                       # count of insts added to the skid buffer
system.cpu00.memDep0.insertedLoads              46727                       # Number of loads inserted to the mem dependence unit.
system.cpu00.memDep0.insertedStores             48715                       # Number of stores inserted to the mem dependence unit.
system.cpu00.memDep0.conflictingLoads             809                       # Number of conflicting loads.
system.cpu00.memDep0.conflictingStores            554                       # Number of conflicting stores.
system.cpu00.iq.iqInstsAdded                   345678                       # Number of instructions added to the IQ (excludes non-spec)
system.cpu00.iq.iqNonSpecInstsAdded               323                       # Number of non-speculative instructions added to the IQ
system.cpu00.iq.iqInstsIssued                  334138                       # Number of instructions issued
system.cpu00.iq.iqSquashedInstsIssued             706                       # Number of squashed instructions issued
system.cpu00.iq.iqSquashedInstsExamined         21739                       # Number of squashed instructions iterated over during squash; mainly for profiling
system.cpu00.iq.iqSquashedOperandsExamined        64945                       # Number of squashed operands that are examined and possibly removed from graph
system.cpu00.iq.iqSquashedNonSpecRemoved           71                       # Number of squashed non-spec instructions that were removed
system.cpu00.iq.issued_per_cycle::samples       257554                       # Number of insts issued each cycle
system.cpu00.iq.issued_per_cycle::mean       1.297351                       # Number of insts issued each cycle
system.cpu00.iq.issued_per_cycle::stdev      1.746928                       # Number of insts issued each cycle
system.cpu00.iq.issued_per_cycle::underflows            0      0.00%      0.00% # Number of insts issued each cycle
system.cpu00.iq.issued_per_cycle::0            155810     60.50%     60.50% # Number of insts issued each cycle
system.cpu00.iq.issued_per_cycle::1             14048      5.45%     65.95% # Number of insts issued each cycle
system.cpu00.iq.issued_per_cycle::2              8579      3.33%     69.28% # Number of insts issued each cycle
system.cpu00.iq.issued_per_cycle::3             13536      5.26%     74.54% # Number of insts issued each cycle
system.cpu00.iq.issued_per_cycle::4             65581     25.46%    100.00% # Number of insts issued each cycle
system.cpu00.iq.issued_per_cycle::overflows            0      0.00%    100.00% # Number of insts issued each cycle
system.cpu00.iq.issued_per_cycle::min_value            0                       # Number of insts issued each cycle
system.cpu00.iq.issued_per_cycle::max_value            4                       # Number of insts issued each cycle
system.cpu00.iq.issued_per_cycle::total        257554                       # Number of insts issued each cycle
system.cpu00.iq.fu_full::No_OpClass                 0      0.00%      0.00% # attempts to use FU when none available
system.cpu00.iq.fu_full::IntAlu                     0      0.00%      0.00% # attempts to use FU when none available
system.cpu00.iq.fu_full::IntMult                  716    100.00%    100.00% # attempts to use FU when none available
system.cpu00.iq.fu_full::IntDiv                     0      0.00%    100.00% # attempts to use FU when none available
system.cpu00.iq.fu_full::FloatAdd                   0      0.00%    100.00% # attempts to use FU when none available
system.cpu00.iq.fu_full::FloatCmp                   0      0.00%    100.00% # attempts to use FU when none available
system.cpu00.iq.fu_full::FloatCvt                   0      0.00%    100.00% # attempts to use FU when none available
system.cpu00.iq.fu_full::FloatMult                  0      0.00%    100.00% # attempts to use FU when none available
system.cpu00.iq.fu_full::FloatDiv                   0      0.00%    100.00% # attempts to use FU when none available
system.cpu00.iq.fu_full::FloatSqrt                  0      0.00%    100.00% # attempts to use FU when none available
system.cpu00.iq.fu_full::SimdAdd                    0      0.00%    100.00% # attempts to use FU when none available
system.cpu00.iq.fu_full::SimdAddAcc                 0      0.00%    100.00% # attempts to use FU when none available
system.cpu00.iq.fu_full::SimdAlu                    0      0.00%    100.00% # attempts to use FU when none available
system.cpu00.iq.fu_full::SimdCmp                    0      0.00%    100.00% # attempts to use FU when none available
system.cpu00.iq.fu_full::SimdCvt                    0      0.00%    100.00% # attempts to use FU when none available
system.cpu00.iq.fu_full::SimdMisc                   0      0.00%    100.00% # attempts to use FU when none available
system.cpu00.iq.fu_full::SimdMult                   0      0.00%    100.00% # attempts to use FU when none available
system.cpu00.iq.fu_full::SimdMultAcc                0      0.00%    100.00% # attempts to use FU when none available
system.cpu00.iq.fu_full::SimdShift                  0      0.00%    100.00% # attempts to use FU when none available
system.cpu00.iq.fu_full::SimdShiftAcc               0      0.00%    100.00% # attempts to use FU when none available
system.cpu00.iq.fu_full::SimdSqrt                   0      0.00%    100.00% # attempts to use FU when none available
system.cpu00.iq.fu_full::SimdFloatAdd               0      0.00%    100.00% # attempts to use FU when none available
system.cpu00.iq.fu_full::SimdFloatAlu               0      0.00%    100.00% # attempts to use FU when none available
system.cpu00.iq.fu_full::SimdFloatCmp               0      0.00%    100.00% # attempts to use FU when none available
system.cpu00.iq.fu_full::SimdFloatCvt               0      0.00%    100.00% # attempts to use FU when none available
system.cpu00.iq.fu_full::SimdFloatDiv               0      0.00%    100.00% # attempts to use FU when none available
[...]
system.tol2bus.snoop_fanout::3                      0      0.00%      0.00% # Request fanout histogram
system.tol2bus.snoop_fanout::4                      0      0.00%      0.00% # Request fanout histogram
system.tol2bus.snoop_fanout::5                      0      0.00%      0.00% # Request fanout histogram
system.tol2bus.snoop_fanout::6                      0      0.00%      0.00% # Request fanout histogram
system.tol2bus.snoop_fanout::7                      0      0.00%      0.00% # Request fanout histogram
system.tol2bus.snoop_fanout::8                      0      0.00%      0.00% # Request fanout histogram
system.tol2bus.snoop_fanout::9                      0      0.00%      0.00% # Request fanout histogram
system.tol2bus.snoop_fanout::10                     0      0.00%      0.00% # Request fanout histogram
system.tol2bus.snoop_fanout::11                     0      0.00%      0.00% # Request fanout histogram
system.tol2bus.snoop_fanout::12                     0      0.00%      0.00% # Request fanout histogram
system.tol2bus.snoop_fanout::13                     0      0.00%      0.00% # Request fanout histogram
system.tol2bus.snoop_fanout::14                     0      0.00%      0.00% # Request fanout histogram
system.tol2bus.snoop_fanout::15                     0      0.00%      0.00% # Request fanout histogram
system.tol2bus.snoop_fanout::16                     0      0.00%      0.00% # Request fanout histogram
system.tol2bus.snoop_fanout::17                     0      0.00%      0.00% # Request fanout histogram
system.tol2bus.snoop_fanout::18                     0      0.00%      0.00% # Request fanout histogram
system.tol2bus.snoop_fanout::19                     0      0.00%      0.00% # Request fanout histogram
system.tol2bus.snoop_fanout::20                     0      0.00%      0.00% # Request fanout histogram
system.tol2bus.snoop_fanout::21                     0      0.00%      0.00% # Request fanout histogram
system.tol2bus.snoop_fanout::22                     0      0.00%      0.00% # Request fanout histogram
system.tol2bus.snoop_fanout::23                     0      0.00%      0.00% # Request fanout histogram
system.tol2bus.snoop_fanout::24                     0      0.00%      0.00% # Request fanout histogram
system.tol2bus.snoop_fanout::25                     0      0.00%      0.00% # Request fanout histogram
system.tol2bus.snoop_fanout::26                     0      0.00%      0.00% # Request fanout histogram
system.tol2bus.snoop_fanout::27                     0      0.00%      0.00% # Request fanout histogram
system.tol2bus.snoop_fanout::28                     0      0.00%      0.00% # Request fanout histogram
system.tol2bus.snoop_fanout::29                     0      0.00%      0.00% # Request fanout histogram
system.tol2bus.snoop_fanout::30                     0      0.00%      0.00% # Request fanout histogram
system.tol2bus.snoop_fanout::31                     0      0.00%      0.00% # Request fanout histogram
system.tol2bus.snoop_fanout::32                     0      0.00%      0.00% # Request fanout histogram
system.tol2bus.snoop_fanout::33                     0      0.00%      0.00% # Request fanout histogram
system.tol2bus.snoop_fanout::34                     0      0.00%      0.00% # Request fanout histogram
system.tol2bus.snoop_fanout::35                     0      0.00%      0.00% # Request fanout histogram
system.tol2bus.snoop_fanout::36                     0      0.00%      0.00% # Request fanout histogram
system.tol2bus.snoop_fanout::37                     0      0.00%      0.00% # Request fanout histogram
system.tol2bus.snoop_fanout::38                     0      0.00%      0.00% # Request fanout histogram
system.tol2bus.snoop_fanout::39                     0      0.00%      0.00% # Request fanout histogram
system.tol2bus.snoop_fanout::40                     0      0.00%      0.00% # Request fanout histogram
system.tol2bus.snoop_fanout::41                     0      0.00%      0.00% # Request fanout histogram
system.tol2bus.snoop_fanout::42                     0      0.00%      0.00% # Request fanout histogram
system.tol2bus.snoop_fanout::43                     0      0.00%      0.00% # Request fanout histogram
system.tol2bus.snoop_fanout::44                     0      0.00%      0.00% # Request fanout histogram
system.tol2bus.snoop_fanout::45                     0      0.00%      0.00% # Request fanout histogram
system.tol2bus.snoop_fanout::46                     0      0.00%      0.00% # Request fanout histogram
system.tol2bus.snoop_fanout::47                     0      0.00%      0.00% # Request fanout histogram
system.tol2bus.snoop_fanout::48                     0      0.00%      0.00% # Request fanout histogram
system.tol2bus.snoop_fanout::49                     0      0.00%      0.00% # Request fanout histogram
system.tol2bus.snoop_fanout::50                     0      0.00%      0.00% # Request fanout histogram
system.tol2bus.snoop_fanout::51                     0      0.00%      0.00% # Request fanout histogram
system.tol2bus.snoop_fanout::52                     0      0.00%      0.00% # Request fanout histogram
system.tol2bus.snoop_fanout::53                     0      0.00%      0.00% # Request fanout histogram
system.tol2bus.snoop_fanout::54                     0      0.00%      0.00% # Request fanout histogram
system.tol2bus.snoop_fanout::55                     0      0.00%      0.00% # Request fanout histogram
system.tol2bus.snoop_fanout::56                     0      0.00%      0.00% # Request fanout histogram
system.tol2bus.snoop_fanout::57                     0      0.00%      0.00% # Request fanout histogram
system.tol2bus.snoop_fanout::58                     0      0.00%      0.00% # Request fanout histogram
system.tol2bus.snoop_fanout::59                     0      0.00%      0.00% # Request fanout histogram
system.tol2bus.snoop_fanout::60                     0      0.00%      0.00% # Request fanout histogram
system.tol2bus.snoop_fanout::61                     0      0.00%      0.00% # Request fanout histogram
system.tol2bus.snoop_fanout::62                     0      0.00%      0.00% # Request fanout histogram
system.tol2bus.snoop_fanout::63                 40893    100.00%    100.00% # Request fanout histogram
system.tol2bus.snoop_fanout::64                     0      0.00%    100.00% # Request fanout histogram
system.tol2bus.snoop_fanout::overflows              0      0.00%    100.00% # Request fanout histogram
system.tol2bus.snoop_fanout::min_value             63                       # Request fanout histogram
system.tol2bus.snoop_fanout::max_value             63                       # Request fanout histogram
system.tol2bus.snoop_fanout::total              40893                       # Request fanout histogram
system.tol2bus.reqLayer0.occupancy           26829982                       # Layer occupancy (ticks)
system.tol2bus.reqLayer0.utilization             17.7                       # Layer utilization (%)
system.tol2bus.respLayer0.occupancy           1098498                       # Layer occupancy (ticks)
system.tol2bus.respLayer0.utilization             0.7                       # Layer utilization (%)
system.tol2bus.respLayer1.occupancy           5439233                       # Layer occupancy (ticks)
system.tol2bus.respLayer1.utilization             3.6                       # Layer utilization (%)
system.tol2bus.respLayer4.occupancy             90456                       # Layer occupancy (ticks)
system.tol2bus.respLayer4.utilization             0.1                       # Layer utilization (%)
system.tol2bus.respLayer5.occupancy           1277883                       # Layer occupancy (ticks)
system.tol2bus.respLayer5.utilization             0.8                       # Layer utilization (%)
system.tol2bus.respLayer8.occupancy             91231                       # Layer occupancy (ticks)
system.tol2bus.respLayer8.utilization             0.1                       # Layer utilization (%)
system.tol2bus.respLayer9.occupancy           1270413                       # Layer occupancy (ticks)
system.tol2bus.respLayer9.utilization             0.8                       # Layer utilization (%)
system.tol2bus.respLayer12.occupancy            91690                       # Layer occupancy (ticks)
system.tol2bus.respLayer12.utilization            0.1                       # Layer utilization (%)
system.tol2bus.respLayer13.occupancy          1371653                       # Layer occupancy (ticks)
system.tol2bus.respLayer13.utilization            0.9                       # Layer utilization (%)
system.tol2bus.respLayer16.occupancy            88941                       # Layer occupancy (ticks)
system.tol2bus.respLayer16.utilization            0.1                       # Layer utilization (%)
system.tol2bus.respLayer17.occupancy          1351396                       # Layer occupancy (ticks)
system.tol2bus.respLayer17.utilization            0.9                       # Layer utilization (%)
system.tol2bus.respLayer20.occupancy            89712                       # Layer occupancy (ticks)
system.tol2bus.respLayer20.utilization            0.1                       # Layer utilization (%)
system.tol2bus.respLayer21.occupancy          1425312                       # Layer occupancy (ticks)
system.tol2bus.respLayer21.utilization            0.9                       # Layer utilization (%)
system.tol2bus.respLayer24.occupancy            89711                       # Layer occupancy (ticks)
system.tol2bus.respLayer24.utilization            0.1                       # Layer utilization (%)
system.tol2bus.respLayer25.occupancy          1411349                       # Layer occupancy (ticks)
system.tol2bus.respLayer25.utilization            0.9                       # Layer utilization (%)
system.tol2bus.respLayer28.occupancy            85225                       # Layer occupancy (ticks)
system.tol2bus.respLayer28.utilization            0.1                       # Layer utilization (%)
system.tol2bus.respLayer29.occupancy          1394389                       # Layer occupancy (ticks)
system.tol2bus.respLayer29.utilization            0.9                       # Layer utilization (%)
system.tol2bus.respLayer32.occupancy            89693                       # Layer occupancy (ticks)
system.tol2bus.respLayer32.utilization            0.1                       # Layer utilization (%)
system.tol2bus.respLayer33.occupancy          1451523                       # Layer occupancy (ticks)
system.tol2bus.respLayer33.utilization            1.0                       # Layer utilization (%)
system.tol2bus.respLayer36.occupancy            89208                       # Layer occupancy (ticks)
system.tol2bus.respLayer36.utilization            0.1                       # Layer utilization (%)
system.tol2bus.respLayer37.occupancy          1440327                       # Layer occupancy (ticks)
system.tol2bus.respLayer37.utilization            1.0                       # Layer utilization (%)
system.tol2bus.respLayer40.occupancy            89201                       # Layer occupancy (ticks)
system.tol2bus.respLayer40.utilization            0.1                       # Layer utilization (%)
system.tol2bus.respLayer41.occupancy          1412122                       # Layer occupancy (ticks)
system.tol2bus.respLayer41.utilization            0.9                       # Layer utilization (%)
system.tol2bus.respLayer44.occupancy            87696                       # Layer occupancy (ticks)
system.tol2bus.respLayer44.utilization            0.1                       # Layer utilization (%)
system.tol2bus.respLayer45.occupancy          1427613                       # Layer occupancy (ticks)
system.tol2bus.respLayer45.utilization            0.9                       # Layer utilization (%)
system.tol2bus.respLayer48.occupancy            89687                       # Layer occupancy (ticks)
system.tol2bus.respLayer48.utilization            0.1                       # Layer utilization (%)
system.tol2bus.respLayer49.occupancy          1441375                       # Layer occupancy (ticks)
system.tol2bus.respLayer49.utilization            1.0                       # Layer utilization (%)
system.tol2bus.respLayer52.occupancy            83498                       # Layer occupancy (ticks)
system.tol2bus.respLayer52.utilization            0.1                       # Layer utilization (%)
system.tol2bus.respLayer53.occupancy          1376484                       # Layer occupancy (ticks)
system.tol2bus.respLayer53.utilization            0.9                       # Layer utilization (%)
system.tol2bus.respLayer56.occupancy            82999                       # Layer occupancy (ticks)
system.tol2bus.respLayer56.utilization            0.1                       # Layer utilization (%)
system.tol2bus.respLayer57.occupancy          1401887                       # Layer occupancy (ticks)
system.tol2bus.respLayer57.utilization            0.9                       # Layer utilization (%)
system.tol2bus.respLayer60.occupancy            82501                       # Layer occupancy (ticks)
system.tol2bus.respLayer60.utilization            0.1                       # Layer utilization (%)
system.tol2bus.respLayer61.occupancy          1419665                       # Layer occupancy (ticks)
system.tol2bus.respLayer61.utilization            0.9                       # Layer utilization (%)
system.tol2bus.respLayer64.occupancy            84501                       # Layer occupancy (ticks)
system.tol2bus.respLayer64.utilization            0.1                       # Layer utilization (%)
system.tol2bus.respLayer65.occupancy          1428414                       # Layer occupancy (ticks)
system.tol2bus.respLayer65.utilization            0.9                       # Layer utilization (%)
system.tol2bus.respLayer68.occupancy            82751                       # Layer occupancy (ticks)
system.tol2bus.respLayer68.utilization            0.1                       # Layer utilization (%)
system.tol2bus.respLayer69.occupancy          1408208                       # Layer occupancy (ticks)
system.tol2bus.respLayer69.utilization            0.9                       # Layer utilization (%)
system.tol2bus.respLayer72.occupancy            83000                       # Layer occupancy (ticks)
system.tol2bus.respLayer72.utilization            0.1                       # Layer utilization (%)
system.tol2bus.respLayer73.occupancy          1383453                       # Layer occupancy (ticks)
system.tol2bus.respLayer73.utilization            0.9                       # Layer utilization (%)
system.tol2bus.respLayer76.occupancy            86485                       # Layer occupancy (ticks)
system.tol2bus.respLayer76.utilization            0.1                       # Layer utilization (%)
system.tol2bus.respLayer77.occupancy          1386167                       # Layer occupancy (ticks)
system.tol2bus.respLayer77.utilization            0.9                       # Layer utilization (%)
system.tol2bus.respLayer80.occupancy            86490                       # Layer occupancy (ticks)
system.tol2bus.respLayer80.utilization            0.1                       # Layer utilization (%)
system.tol2bus.respLayer81.occupancy          1401937                       # Layer occupancy (ticks)
system.tol2bus.respLayer81.utilization            0.9                       # Layer utilization (%)
system.tol2bus.respLayer84.occupancy            87251                       # Layer occupancy (ticks)
system.tol2bus.respLayer84.utilization            0.1                       # Layer utilization (%)
system.tol2bus.respLayer85.occupancy          1393183                       # Layer occupancy (ticks)
system.tol2bus.respLayer85.utilization            0.9                       # Layer utilization (%)
system.tol2bus.respLayer88.occupancy            84000                       # Layer occupancy (ticks)
system.tol2bus.respLayer88.utilization            0.1                       # Layer utilization (%)
system.tol2bus.respLayer89.occupancy          1381462                       # Layer occupancy (ticks)
system.tol2bus.respLayer89.utilization            0.9                       # Layer utilization (%)
system.tol2bus.respLayer92.occupancy            82495                       # Layer occupancy (ticks)
system.tol2bus.respLayer92.utilization            0.1                       # Layer utilization (%)
system.tol2bus.respLayer93.occupancy          1417130                       # Layer occupancy (ticks)
system.tol2bus.respLayer93.utilization            0.9                       # Layer utilization (%)
system.tol2bus.respLayer96.occupancy            86498                       # Layer occupancy (ticks)
system.tol2bus.respLayer96.utilization            0.1                       # Layer utilization (%)
system.tol2bus.respLayer97.occupancy          1404129                       # Layer occupancy (ticks)
system.tol2bus.respLayer97.utilization            0.9                       # Layer utilization (%)
system.tol2bus.respLayer100.occupancy           82501                       # Layer occupancy (ticks)
system.tol2bus.respLayer100.utilization           0.1                       # Layer utilization (%)
system.tol2bus.respLayer101.occupancy         1404413                       # Layer occupancy (ticks)
system.tol2bus.respLayer101.utilization           0.9                       # Layer utilization (%)
system.tol2bus.respLayer104.occupancy           81000                       # Layer occupancy (ticks)
system.tol2bus.respLayer104.utilization           0.1                       # Layer utilization (%)
system.tol2bus.respLayer105.occupancy         1382214                       # Layer occupancy (ticks)
system.tol2bus.respLayer105.utilization           0.9                       # Layer utilization (%)
system.tol2bus.respLayer108.occupancy           82500                       # Layer occupancy (ticks)
system.tol2bus.respLayer108.utilization           0.1                       # Layer utilization (%)
system.tol2bus.respLayer109.occupancy         1371976                       # Layer occupancy (ticks)
system.tol2bus.respLayer109.utilization           0.9                       # Layer utilization (%)
system.tol2bus.respLayer112.occupancy           83975                       # Layer occupancy (ticks)
system.tol2bus.respLayer112.utilization           0.1                       # Layer utilization (%)
system.tol2bus.respLayer113.occupancy         1369998                       # Layer occupancy (ticks)
system.tol2bus.respLayer113.utilization           0.9                       # Layer utilization (%)
system.tol2bus.respLayer116.occupancy           81001                       # Layer occupancy (ticks)
system.tol2bus.respLayer116.utilization           0.1                       # Layer utilization (%)
system.tol2bus.respLayer117.occupancy         1377727                       # Layer occupancy (ticks)
system.tol2bus.respLayer117.utilization           0.9                       # Layer utilization (%)
system.tol2bus.respLayer120.occupancy           82500                       # Layer occupancy (ticks)
system.tol2bus.respLayer120.utilization           0.1                       # Layer utilization (%)
system.tol2bus.respLayer121.occupancy         1421658                       # Layer occupancy (ticks)
system.tol2bus.respLayer121.utilization           0.9                       # Layer utilization (%)
system.tol2bus.respLayer124.occupancy           84749                       # Layer occupancy (ticks)
system.tol2bus.respLayer124.utilization           0.1                       # Layer utilization (%)
system.tol2bus.respLayer125.occupancy         1393194                       # Layer occupancy (ticks)
system.tol2bus.respLayer125.utilization           0.9                       # Layer utilization (%)

---------- End Simulation Statistics   ----------
