
---------- Begin Simulation Statistics ----------
sim_seconds                                  0.000150                       # Number of seconds simulated
sim_ticks                                   149805500                       # Number of ticks simulated
final_tick                                  149805500                       # Number of ticks from beginning of simulation (restored from checkpoints and never reset)
sim_freq                                 1000000000000                       # Frequency of simulated ticks
host_inst_rate                                 238361                       # Simulator instruction rate (inst/s)
host_op_rate                                   239948                       # Simulator op (including micro ops) rate (op/s)
host_tick_rate                                5114894                       # Simulator tick rate (ticks/s)
host_mem_usage                                 891940                       # Number of bytes of host memory used
host_seconds                                    29.29                       # Real time elapsed on the host
sim_insts                                     6981135                       # Number of instructions simulated
sim_ops                                       7027625                       # Number of ops (including micro ops) simulated
system.voltage_domain.voltage                       1                       # Voltage in Volts
system.clk_domain.clock                          1000                       # Clock period in ticks
system.mem_ctrls.bytes_read::cpu00.inst         35200                       # Number of bytes read from this memory
system.mem_ctrls.bytes_read::cpu00.data        121408                       # Number of bytes read from this memory
system.mem_ctrls.bytes_read::cpu01.inst          1024                       # Number of bytes read from this memory
system.mem_ctrls.bytes_read::cpu01.data           256                       # Number of bytes read from this memory
system.mem_ctrls.bytes_read::cpu02.data           256                       # Number of bytes read from this memory
system.mem_ctrls.bytes_read::cpu03.data           256                       # Number of bytes read from this memory
system.mem_ctrls.bytes_read::cpu04.inst           448                       # Number of bytes read from this memory
system.mem_ctrls.bytes_read::cpu04.data           320                       # Number of bytes read from this memory
system.mem_ctrls.bytes_read::cpu05.inst           192                       # Number of bytes read from this memory
system.mem_ctrls.bytes_read::cpu05.data           256                       # Number of bytes read from this memory
system.mem_ctrls.bytes_read::cpu06.data           256                       # Number of bytes read from this memory
system.mem_ctrls.bytes_read::cpu07.data           320                       # Number of bytes read from this memory
system.mem_ctrls.bytes_read::cpu08.data           256                       # Number of bytes read from this memory
system.mem_ctrls.bytes_read::cpu09.data           256                       # Number of bytes read from this memory
system.mem_ctrls.bytes_read::cpu10.data           256                       # Number of bytes read from this memory
system.mem_ctrls.bytes_read::cpu11.data           256                       # Number of bytes read from this memory
system.mem_ctrls.bytes_read::cpu12.data           384                       # Number of bytes read from this memory
system.mem_ctrls.bytes_read::cpu13.data           256                       # Number of bytes read from this memory
system.mem_ctrls.bytes_read::cpu14.data           256                       # Number of bytes read from this memory
system.mem_ctrls.bytes_read::cpu15.inst            64                       # Number of bytes read from this memory
system.mem_ctrls.bytes_read::cpu15.data           256                       # Number of bytes read from this memory
system.mem_ctrls.bytes_read::cpu16.data           256                       # Number of bytes read from this memory
system.mem_ctrls.bytes_read::cpu17.inst           384                       # Number of bytes read from this memory
system.mem_ctrls.bytes_read::cpu17.data           256                       # Number of bytes read from this memory
system.mem_ctrls.bytes_read::cpu18.data           256                       # Number of bytes read from this memory
system.mem_ctrls.bytes_read::cpu19.data           256                       # Number of bytes read from this memory
system.mem_ctrls.bytes_read::cpu20.data           256                       # Number of bytes read from this memory
system.mem_ctrls.bytes_read::cpu21.data           256                       # Number of bytes read from this memory
system.mem_ctrls.bytes_read::cpu22.data           256                       # Number of bytes read from this memory
system.mem_ctrls.bytes_read::cpu23.data           256                       # Number of bytes read from this memory
system.mem_ctrls.bytes_read::cpu24.data           256                       # Number of bytes read from this memory
system.mem_ctrls.bytes_read::cpu25.data           256                       # Number of bytes read from this memory
system.mem_ctrls.bytes_read::cpu26.inst            64                       # Number of bytes read from this memory
system.mem_ctrls.bytes_read::cpu26.data           256                       # Number of bytes read from this memory
system.mem_ctrls.bytes_read::cpu27.data           256                       # Number of bytes read from this memory
system.mem_ctrls.bytes_read::cpu28.data           320                       # Number of bytes read from this memory
system.mem_ctrls.bytes_read::cpu29.data           256                       # Number of bytes read from this memory
system.mem_ctrls.bytes_read::cpu30.data           256                       # Number of bytes read from this memory
system.mem_ctrls.bytes_read::cpu31.inst            64                       # Number of bytes read from this memory
system.mem_ctrls.bytes_read::cpu31.data           256                       # Number of bytes read from this memory
system.mem_ctrls.bytes_read::total             167104                       # Number of bytes read from this memory
system.mem_ctrls.bytes_inst_read::cpu00.inst        35200                       # Number of instructions bytes read from this memory
system.mem_ctrls.bytes_inst_read::cpu01.inst         1024                       # Number of instructions bytes read from this memory
system.mem_ctrls.bytes_inst_read::cpu04.inst          448                       # Number of instructions bytes read from this memory
system.mem_ctrls.bytes_inst_read::cpu05.inst          192                       # Number of instructions bytes read from this memory
system.mem_ctrls.bytes_inst_read::cpu15.inst           64                       # Number of instructions bytes read from this memory
system.mem_ctrls.bytes_inst_read::cpu17.inst          384                       # Number of instructions bytes read from this memory
system.mem_ctrls.bytes_inst_read::cpu26.inst           64                       # Number of instructions bytes read from this memory
system.mem_ctrls.bytes_inst_read::cpu31.inst           64                       # Number of instructions bytes read from this memory
system.mem_ctrls.bytes_inst_read::total         37440                       # Number of instructions bytes read from this memory
system.mem_ctrls.bytes_written::writebacks         1024                       # Number of bytes written to this memory
system.mem_ctrls.bytes_written::total            1024                       # Number of bytes written to this memory
system.mem_ctrls.num_reads::cpu00.inst            550                       # Number of read requests responded to by this memory
system.mem_ctrls.num_reads::cpu00.data           1897                       # Number of read requests responded to by this memory
system.mem_ctrls.num_reads::cpu01.inst             16                       # Number of read requests responded to by this memory
system.mem_ctrls.num_reads::cpu01.data              4                       # Number of read requests responded to by this memory
system.mem_ctrls.num_reads::cpu02.data              4                       # Number of read requests responded to by this memory
system.mem_ctrls.num_reads::cpu03.data              4                       # Number of read requests responded to by this memory
system.mem_ctrls.num_reads::cpu04.inst              7                       # Number of read requests responded to by this memory
system.mem_ctrls.num_reads::cpu04.data              5                       # Number of read requests responded to by this memory
system.mem_ctrls.num_reads::cpu05.inst              3                       # Number of read requests responded to by this memory
system.mem_ctrls.num_reads::cpu05.data              4                       # Number of read requests responded to by this memory
system.mem_ctrls.num_reads::cpu06.data              4                       # Number of read requests responded to by this memory
system.mem_ctrls.num_reads::cpu07.data              5                       # Number of read requests responded to by this memory
system.mem_ctrls.num_reads::cpu08.data              4                       # Number of read requests responded to by this memory
system.mem_ctrls.num_reads::cpu09.data              4                       # Number of read requests responded to by this memory
system.mem_ctrls.num_reads::cpu10.data              4                       # Number of read requests responded to by this memory
system.mem_ctrls.num_reads::cpu11.data              4                       # Number of read requests responded to by this memory
system.mem_ctrls.num_reads::cpu12.data              6                       # Number of read requests responded to by this memory
system.mem_ctrls.num_reads::cpu13.data              4                       # Number of read requests responded to by this memory
system.mem_ctrls.num_reads::cpu14.data              4                       # Number of read requests responded to by this memory
system.mem_ctrls.num_reads::cpu15.inst              1                       # Number of read requests responded to by this memory
system.mem_ctrls.num_reads::cpu15.data              4                       # Number of read requests responded to by this memory
system.mem_ctrls.num_reads::cpu16.data              4                       # Number of read requests responded to by this memory
system.mem_ctrls.num_reads::cpu17.inst              6                       # Number of read requests responded to by this memory
system.mem_ctrls.num_reads::cpu17.data              4                       # Number of read requests responded to by this memory
system.mem_ctrls.num_reads::cpu18.data              4                       # Number of read requests responded to by this memory
system.mem_ctrls.num_reads::cpu19.data              4                       # Number of read requests responded to by this memory
system.mem_ctrls.num_reads::cpu20.data              4                       # Number of read requests responded to by this memory
system.mem_ctrls.num_reads::cpu21.data              4                       # Number of read requests responded to by this memory
system.mem_ctrls.num_reads::cpu22.data              4                       # Number of read requests responded to by this memory
system.mem_ctrls.num_reads::cpu23.data              4                       # Number of read requests responded to by this memory
system.mem_ctrls.num_reads::cpu24.data              4                       # Number of read requests responded to by this memory
system.mem_ctrls.num_reads::cpu25.data              4                       # Number of read requests responded to by this memory
system.mem_ctrls.num_reads::cpu26.inst              1                       # Number of read requests responded to by this memory
system.mem_ctrls.num_reads::cpu26.data              4                       # Number of read requests responded to by this memory
system.mem_ctrls.num_reads::cpu27.data              4                       # Number of read requests responded to by this memory
system.mem_ctrls.num_reads::cpu28.data              5                       # Number of read requests responded to by this memory
system.mem_ctrls.num_reads::cpu29.data              4                       # Number of read requests responded to by this memory
system.mem_ctrls.num_reads::cpu30.data              4                       # Number of read requests responded to by this memory
system.mem_ctrls.num_reads::cpu31.inst              1                       # Number of read requests responded to by this memory
system.mem_ctrls.num_reads::cpu31.data              4                       # Number of read requests responded to by this memory
system.mem_ctrls.num_reads::total                2611                       # Number of read requests responded to by this memory
system.mem_ctrls.num_writes::writebacks            16                       # Number of write requests responded to by this memory
system.mem_ctrls.num_writes::total                 16                       # Number of write requests responded to by this memory
system.mem_ctrls.bw_read::cpu00.inst        234971346                       # Total read bandwidth from this memory (bytes/s)
system.mem_ctrls.bw_read::cpu00.data        810437534                       # Total read bandwidth from this memory (bytes/s)
system.mem_ctrls.bw_read::cpu01.inst          6835530                       # Total read bandwidth from this memory (bytes/s)
system.mem_ctrls.bw_read::cpu01.data          1708883                       # Total read bandwidth from this memory (bytes/s)
system.mem_ctrls.bw_read::cpu02.data          1708883                       # Total read bandwidth from this memory (bytes/s)
system.mem_ctrls.bw_read::cpu03.data          1708883                       # Total read bandwidth from this memory (bytes/s)
system.mem_ctrls.bw_read::cpu04.inst          2990544                       # Total read bandwidth from this memory (bytes/s)
system.mem_ctrls.bw_read::cpu04.data          2136103                       # Total read bandwidth from this memory (bytes/s)
system.mem_ctrls.bw_read::cpu05.inst          1281662                       # Total read bandwidth from this memory (bytes/s)
system.mem_ctrls.bw_read::cpu05.data          1708883                       # Total read bandwidth from this memory (bytes/s)
system.mem_ctrls.bw_read::cpu06.data          1708883                       # Total read bandwidth from this memory (bytes/s)
system.mem_ctrls.bw_read::cpu07.data          2136103                       # Total read bandwidth from this memory (bytes/s)
system.mem_ctrls.bw_read::cpu08.data          1708883                       # Total read bandwidth from this memory (bytes/s)
system.mem_ctrls.bw_read::cpu09.data          1708883                       # Total read bandwidth from this memory (bytes/s)
system.mem_ctrls.bw_read::cpu10.data          1708883                       # Total read bandwidth from this memory (bytes/s)
system.mem_ctrls.bw_read::cpu11.data          1708883                       # Total read bandwidth from this memory (bytes/s)
system.mem_ctrls.bw_read::cpu12.data          2563324                       # Total read bandwidth from this memory (bytes/s)
system.mem_ctrls.bw_read::cpu13.data          1708883                       # Total read bandwidth from this memory (bytes/s)
system.mem_ctrls.bw_read::cpu14.data          1708883                       # Total read bandwidth from this memory (bytes/s)
system.mem_ctrls.bw_read::cpu15.inst           427221                       # Total read bandwidth from this memory (bytes/s)
system.mem_ctrls.bw_read::cpu15.data          1708883                       # Total read bandwidth from this memory (bytes/s)
system.mem_ctrls.bw_read::cpu16.data          1708883                       # Total read bandwidth from this memory (bytes/s)
system.mem_ctrls.bw_read::cpu17.inst          2563324                       # Total read bandwidth from this memory (bytes/s)
system.mem_ctrls.bw_read::cpu17.data          1708883                       # Total read bandwidth from this memory (bytes/s)
system.mem_ctrls.bw_read::cpu18.data          1708883                       # Total read bandwidth from this memory (bytes/s)
system.mem_ctrls.bw_read::cpu19.data          1708883                       # Total read bandwidth from this memory (bytes/s)
system.mem_ctrls.bw_read::cpu20.data          1708883                       # Total read bandwidth from this memory (bytes/s)
system.mem_ctrls.bw_read::cpu21.data          1708883                       # Total read bandwidth from this memory (bytes/s)
system.mem_ctrls.bw_read::cpu22.data          1708883                       # Total read bandwidth from this memory (bytes/s)
system.mem_ctrls.bw_read::cpu23.data          1708883                       # Total read bandwidth from this memory (bytes/s)
system.mem_ctrls.bw_read::cpu24.data          1708883                       # Total read bandwidth from this memory (bytes/s)
system.mem_ctrls.bw_read::cpu25.data          1708883                       # Total read bandwidth from this memory (bytes/s)
system.mem_ctrls.bw_read::cpu26.inst           427221                       # Total read bandwidth from this memory (bytes/s)
system.mem_ctrls.bw_read::cpu26.data          1708883                       # Total read bandwidth from this memory (bytes/s)
system.mem_ctrls.bw_read::cpu27.data          1708883                       # Total read bandwidth from this memory (bytes/s)
system.mem_ctrls.bw_read::cpu28.data          2136103                       # Total read bandwidth from this memory (bytes/s)
system.mem_ctrls.bw_read::cpu29.data          1708883                       # Total read bandwidth from this memory (bytes/s)
system.mem_ctrls.bw_read::cpu30.data          1708883                       # Total read bandwidth from this memory (bytes/s)
system.mem_ctrls.bw_read::cpu31.inst           427221                       # Total read bandwidth from this memory (bytes/s)
system.mem_ctrls.bw_read::cpu31.data          1708883                       # Total read bandwidth from this memory (bytes/s)
system.mem_ctrls.bw_read::total            1115473063                       # Total read bandwidth from this memory (bytes/s)
system.mem_ctrls.bw_inst_read::cpu00.inst    234971346                       # Instruction read bandwidth from this memory (bytes/s)
system.mem_ctrls.bw_inst_read::cpu01.inst      6835530                       # Instruction read bandwidth from this memory (bytes/s)
system.mem_ctrls.bw_inst_read::cpu04.inst      2990544                       # Instruction read bandwidth from this memory (bytes/s)
system.mem_ctrls.bw_inst_read::cpu05.inst      1281662                       # Instruction read bandwidth from this memory (bytes/s)
system.mem_ctrls.bw_inst_read::cpu15.inst       427221                       # Instruction read bandwidth from this memory (bytes/s)
system.mem_ctrls.bw_inst_read::cpu17.inst      2563324                       # Instruction read bandwidth from this memory (bytes/s)
system.mem_ctrls.bw_inst_read::cpu26.inst       427221                       # Instruction read bandwidth from this memory (bytes/s)
system.mem_ctrls.bw_inst_read::cpu31.inst       427221                       # Instruction read bandwidth from this memory (bytes/s)
system.mem_ctrls.bw_inst_read::total        249924068                       # Instruction read bandwidth from this memory (bytes/s)
system.mem_ctrls.bw_write::writebacks         6835530                       # Write bandwidth from this memory (bytes/s)
system.mem_ctrls.bw_write::total              6835530                       # Write bandwidth from this memory (bytes/s)
system.mem_ctrls.bw_total::writebacks         6835530                       # Total bandwidth to/from this memory (bytes/s)
system.mem_ctrls.bw_total::cpu00.inst       234971346                       # Total bandwidth to/from this memory (bytes/s)
system.mem_ctrls.bw_total::cpu00.data       810437534                       # Total bandwidth to/from this memory (bytes/s)
system.mem_ctrls.bw_total::cpu01.inst         6835530                       # Total bandwidth to/from this memory (bytes/s)
system.mem_ctrls.bw_total::cpu01.data         1708883                       # Total bandwidth to/from this memory (bytes/s)
system.mem_ctrls.bw_total::cpu02.data         1708883                       # Total bandwidth to/from this memory (bytes/s)
system.mem_ctrls.bw_total::cpu03.data         1708883                       # Total bandwidth to/from this memory (bytes/s)
system.mem_ctrls.bw_total::cpu04.inst         2990544                       # Total bandwidth to/from this memory (bytes/s)
system.mem_ctrls.bw_total::cpu04.data         2136103                       # Total bandwidth to/from this memory (bytes/s)
system.mem_ctrls.bw_total::cpu05.inst         1281662                       # Total bandwidth to/from this memory (bytes/s)
system.mem_ctrls.bw_total::cpu05.data         1708883                       # Total bandwidth to/from this memory (bytes/s)
system.mem_ctrls.bw_total::cpu06.data         1708883                       # Total bandwidth to/from this memory (bytes/s)
system.mem_ctrls.bw_total::cpu07.data         2136103                       # Total bandwidth to/from this memory (bytes/s)
system.mem_ctrls.bw_total::cpu08.data         1708883                       # Total bandwidth to/from this memory (bytes/s)
system.mem_ctrls.bw_total::cpu09.data         1708883                       # Total bandwidth to/from this memory (bytes/s)
system.mem_ctrls.bw_total::cpu10.data         1708883                       # Total bandwidth to/from this memory (bytes/s)
system.mem_ctrls.bw_total::cpu11.data         1708883                       # Total bandwidth to/from this memory (bytes/s)
system.mem_ctrls.bw_total::cpu12.data         2563324                       # Total bandwidth to/from this memory (bytes/s)
system.mem_ctrls.bw_total::cpu13.data         1708883                       # Total bandwidth to/from this memory (bytes/s)
system.mem_ctrls.bw_total::cpu14.data         1708883                       # Total bandwidth to/from this memory (bytes/s)
system.mem_ctrls.bw_total::cpu15.inst          427221                       # Total bandwidth to/from this memory (bytes/s)
system.mem_ctrls.bw_total::cpu15.data         1708883                       # Total bandwidth to/from this memory (bytes/s)
system.mem_ctrls.bw_total::cpu16.data         1708883                       # Total bandwidth to/from this memory (bytes/s)
system.mem_ctrls.bw_total::cpu17.inst         2563324                       # Total bandwidth to/from this memory (bytes/s)
system.mem_ctrls.bw_total::cpu17.data         1708883                       # Total bandwidth to/from this memory (bytes/s)
system.mem_ctrls.bw_total::cpu18.data         1708883                       # Total bandwidth to/from this memory (bytes/s)
system.mem_ctrls.bw_total::cpu19.data         1708883                       # Total bandwidth to/from this memory (bytes/s)
system.mem_ctrls.bw_total::cpu20.data         1708883                       # Total bandwidth to/from this memory (bytes/s)
system.mem_ctrls.bw_total::cpu21.data         1708883                       # Total bandwidth to/from this memory (bytes/s)
system.mem_ctrls.bw_total::cpu22.data         1708883                       # Total bandwidth to/from this memory (bytes/s)
system.mem_ctrls.bw_total::cpu23.data         1708883                       # Total bandwidth to/from this memory (bytes/s)
system.mem_ctrls.bw_total::cpu24.data         1708883                       # Total bandwidth to/from this memory (bytes/s)
system.mem_ctrls.bw_total::cpu25.data         1708883                       # Total bandwidth to/from this memory (bytes/s)
system.mem_ctrls.bw_total::cpu26.inst          427221                       # Total bandwidth to/from this memory (bytes/s)
system.mem_ctrls.bw_total::cpu26.data         1708883                       # Total bandwidth to/from this memory (bytes/s)
system.mem_ctrls.bw_total::cpu27.data         1708883                       # Total bandwidth to/from this memory (bytes/s)
system.mem_ctrls.bw_total::cpu28.data         2136103                       # Total bandwidth to/from this memory (bytes/s)
system.mem_ctrls.bw_total::cpu29.data         1708883                       # Total bandwidth to/from this memory (bytes/s)
system.mem_ctrls.bw_total::cpu30.data         1708883                       # Total bandwidth to/from this memory (bytes/s)
system.mem_ctrls.bw_total::cpu31.inst          427221                       # Total bandwidth to/from this memory (bytes/s)
system.mem_ctrls.bw_total::cpu31.data         1708883                       # Total bandwidth to/from this memory (bytes/s)
system.mem_ctrls.bw_total::total           1122308593                       # Total bandwidth to/from this memory (bytes/s)
system.mem_ctrls.readReqs                        2611                       # Number of read requests accepted
system.mem_ctrls.writeReqs                         16                       # Number of write requests accepted
system.mem_ctrls.readBursts                      2611                       # Number of DRAM read bursts, including those serviced by the write queue
system.mem_ctrls.writeBursts                       16                       # Number of DRAM write bursts, including those merged in the write queue
system.mem_ctrls.bytesReadDRAM                 167040                       # Total number of bytes read from DRAM
system.mem_ctrls.bytesReadWrQ                      64                       # Total number of bytes read from write queue
system.mem_ctrls.bytesWritten                       0                       # Total number of bytes written to DRAM
system.mem_ctrls.bytesReadSys                  167104                       # Total read bytes from the system interface side
system.mem_ctrls.bytesWrittenSys                 1024                       # Total written bytes from the system interface side
system.mem_ctrls.servicedByWrQ                      1                       # Number of DRAM read bursts serviced by the write queue
system.mem_ctrls.mergedWrBursts                     0                       # Number of DRAM write bursts merged with an existing one
system.mem_ctrls.neitherReadNorWriteReqs            6                       # Number of requests that are neither read nor write
system.mem_ctrls.perBankRdBursts::0               131                       # Per bank write bursts
system.mem_ctrls.perBankRdBursts::1               141                       # Per bank write bursts
system.mem_ctrls.perBankRdBursts::2               146                       # Per bank write bursts
system.mem_ctrls.perBankRdBursts::3               288                       # Per bank write bursts
system.mem_ctrls.perBankRdBursts::4               240                       # Per bank write bursts
system.mem_ctrls.perBankRdBursts::5               150                       # Per bank write bursts
system.mem_ctrls.perBankRdBursts::6               224                       # Per bank write bursts
system.mem_ctrls.perBankRdBursts::7               162                       # Per bank write bursts
system.mem_ctrls.perBankRdBursts::8               142                       # Per bank write bursts
system.mem_ctrls.perBankRdBursts::9               138                       # Per bank write bursts
system.mem_ctrls.perBankRdBursts::10              128                       # Per bank write bursts
system.mem_ctrls.perBankRdBursts::11              142                       # Per bank write bursts
system.mem_ctrls.perBankRdBursts::12              134                       # Per bank write bursts
system.mem_ctrls.perBankRdBursts::13              161                       # Per bank write bursts
system.mem_ctrls.perBankRdBursts::14              166                       # Per bank write bursts
system.mem_ctrls.perBankRdBursts::15              117                       # Per bank write bursts
system.mem_ctrls.perBankWrBursts::0                 0                       # Per bank write bursts
system.mem_ctrls.perBankWrBursts::1                 0                       # Per bank write bursts
system.mem_ctrls.perBankWrBursts::2                 0                       # Per bank write bursts
system.mem_ctrls.perBankWrBursts::3                 0                       # Per bank write bursts
system.mem_ctrls.perBankWrBursts::4                 0                       # Per bank write bursts
system.mem_ctrls.perBankWrBursts::5                 0                       # Per bank write bursts
system.mem_ctrls.perBankWrBursts::6                 0                       # Per bank write bursts
system.mem_ctrls.perBankWrBursts::7                 0                       # Per bank write bursts
system.mem_ctrls.perBankWrBursts::8                 0                       # Per bank write bursts
system.mem_ctrls.perBankWrBursts::9                 0                       # Per bank write bursts
system.mem_ctrls.perBankWrBursts::10                0                       # Per bank write bursts
system.mem_ctrls.perBankWrBursts::11                0                       # Per bank write bursts
system.mem_ctrls.perBankWrBursts::12                0                       # Per bank write bursts
system.mem_ctrls.perBankWrBursts::13                0                       # Per bank write bursts
system.mem_ctrls.perBankWrBursts::14                0                       # Per bank write bursts
system.mem_ctrls.perBankWrBursts::15                0                       # Per bank write bursts
system.mem_ctrls.numRdRetry                         0                       # Number of times read queue was full causing retry
system.mem_ctrls.numWrRetry                         0                       # Number of times write queue was full causing retry
system.mem_ctrls.totGap                     149766000                       # Total gap between requests
system.mem_ctrls.readPktSize::0                     0                       # Read request sizes (log2)
system.mem_ctrls.readPktSize::1                     0                       # Read request sizes (log2)
system.mem_ctrls.readPktSize::2                     0                       # Read request sizes (log2)
system.mem_ctrls.readPktSize::3                     0                       # Read request sizes (log2)
system.mem_ctrls.readPktSize::4                     0                       # Read request sizes (log2)
system.mem_ctrls.readPktSize::5                     0                       # Read request sizes (log2)
system.mem_ctrls.readPktSize::6                  2611                       # Read request sizes (log2)
system.mem_ctrls.writePktSize::0                    0                       # Write request sizes (log2)
system.mem_ctrls.writePktSize::1                    0                       # Write request sizes (log2)
system.mem_ctrls.writePktSize::2                    0                       # Write request sizes (log2)
system.mem_ctrls.writePktSize::3                    0                       # Write request sizes (log2)
system.mem_ctrls.writePktSize::4                    0                       # Write request sizes (log2)
system.mem_ctrls.writePktSize::5                    0                       # Write request sizes (log2)
system.mem_ctrls.writePktSize::6                   16                       # Write request sizes (log2)
system.mem_ctrls.rdQLenPdf::0                    1403                       # What read queue length does an incoming req see
system.mem_ctrls.rdQLenPdf::1                     984                       # What read queue length does an incoming req see
system.mem_ctrls.rdQLenPdf::2                     128                       # What read queue length does an incoming req see
system.mem_ctrls.rdQLenPdf::3                      45                       # What read queue length does an incoming req see
system.mem_ctrls.rdQLenPdf::4                      12                       # What read queue length does an incoming req see
system.mem_ctrls.rdQLenPdf::5                       5                       # What read queue length does an incoming req see
system.mem_ctrls.rdQLenPdf::6                       2                       # What read queue length does an incoming req see
system.mem_ctrls.rdQLenPdf::7                       2                       # What read queue length does an incoming req see
system.mem_ctrls.rdQLenPdf::8                       1                       # What read queue length does an incoming req see
system.mem_ctrls.rdQLenPdf::9                       1                       # What read queue length does an incoming req see
system.mem_ctrls.rdQLenPdf::10                      2                       # What read queue length does an incoming req see
system.mem_ctrls.rdQLenPdf::11                      2                       # What read queue length does an incoming req see
system.mem_ctrls.rdQLenPdf::12                      3                       # What read queue length does an incoming req see
system.mem_ctrls.rdQLenPdf::13                      2                       # What read queue length does an incoming req see
system.mem_ctrls.rdQLenPdf::14                      4                       # What read queue length does an incoming req see
system.mem_ctrls.rdQLenPdf::15                      1                       # What read queue length does an incoming req see
system.mem_ctrls.rdQLenPdf::16                      3                       # What read queue length does an incoming req see
system.mem_ctrls.rdQLenPdf::17                      2                       # What read queue length does an incoming req see
system.mem_ctrls.rdQLenPdf::18                      1                       # What read queue length does an incoming req see
system.mem_ctrls.rdQLenPdf::19                      7                       # What read queue length does an incoming req see
system.mem_ctrls.rdQLenPdf::20                      0                       # What read queue length does an incoming req see
system.mem_ctrls.rdQLenPdf::21                      0                       # What read queue length does an incoming req see
system.mem_ctrls.rdQLenPdf::22                      0                       # What read queue length does an incoming req see
system.mem_ctrls.rdQLenPdf::23                      0                       # What read queue length does an incoming req see
system.mem_ctrls.rdQLenPdf::24                      0                       # What read queue length does an incoming req see
system.mem_ctrls.rdQLenPdf::25                      0                       # What read queue length does an incoming req see
system.mem_ctrls.rdQLenPdf::26                      0                       # What read queue length does an incoming req see
system.mem_ctrls.rdQLenPdf::27                      0                       # What read queue length does an incoming req see
system.mem_ctrls.rdQLenPdf::28                      0                       # What read queue length does an incoming req see
system.mem_ctrls.rdQLenPdf::29                      0                       # What read queue length does an incoming req see
system.mem_ctrls.rdQLenPdf::30                      0                       # What read queue length does an incoming req see
system.mem_ctrls.rdQLenPdf::31                      0                       # What read queue length does an incoming req see
system.mem_ctrls.wrQLenPdf::0                       1                       # What write queue length does an incoming req see
system.mem_ctrls.wrQLenPdf::1                       1                       # What write queue length does an incoming req see
system.mem_ctrls.wrQLenPdf::2                       1                       # What write queue length does an incoming req see
system.mem_ctrls.wrQLenPdf::3                       1                       # What write queue length does an incoming req see
system.mem_ctrls.wrQLenPdf::4                       1                       # What write queue length does an incoming req see
system.mem_ctrls.wrQLenPdf::5                       1                       # What write queue length does an incoming req see
system.mem_ctrls.wrQLenPdf::6                       1                       # What write queue length does an incoming req see
system.mem_ctrls.wrQLenPdf::7                       1                       # What write queue length does an incoming req see
system.mem_ctrls.wrQLenPdf::8                       1                       # What write queue length does an incoming req see
system.mem_ctrls.wrQLenPdf::9                       1                       # What write queue length does an incoming req see
system.mem_ctrls.wrQLenPdf::10                      1                       # What write queue length does an incoming req see
system.mem_ctrls.wrQLenPdf::11                      1                       # What write queue length does an incoming req see
system.mem_ctrls.wrQLenPdf::12                      1                       # What write queue length does an incoming req see
system.mem_ctrls.wrQLenPdf::13                      1                       # What write queue length does an incoming req see
system.mem_ctrls.wrQLenPdf::14                      1                       # What write queue length does an incoming req see
system.mem_ctrls.wrQLenPdf::15                      1                       # What write queue length does an incoming req see
system.mem_ctrls.wrQLenPdf::16                      0                       # What write queue length does an incoming req see
system.mem_ctrls.wrQLenPdf::17                      0                       # What write queue length does an incoming req see
system.mem_ctrls.wrQLenPdf::18                      0                       # What write queue length does an incoming req see
system.mem_ctrls.wrQLenPdf::19                      0                       # What write queue length does an incoming req see
system.mem_ctrls.wrQLenPdf::20                      0                       # What write queue length does an incoming req see
system.mem_ctrls.wrQLenPdf::21                      0                       # What write queue length does an incoming req see
system.mem_ctrls.wrQLenPdf::22                      0                       # What write queue length does an incoming req see
system.mem_ctrls.wrQLenPdf::23                      0                       # What write queue length does an incoming req see
system.mem_ctrls.wrQLenPdf::24                      0                       # What write queue length does an incoming req see
system.mem_ctrls.wrQLenPdf::25                      0                       # What write queue length does an incoming req see
system.mem_ctrls.wrQLenPdf::26                      0                       # What write queue length does an incoming req see
system.mem_ctrls.wrQLenPdf::27                      0                       # What write queue length does an incoming req see
system.mem_ctrls.wrQLenPdf::28                      0                       # What write queue length does an incoming req see
system.mem_ctrls.wrQLenPdf::29                      0                       # What write queue length does an incoming req see
system.mem_ctrls.wrQLenPdf::30                      0                       # What write queue length does an incoming req see
system.mem_ctrls.wrQLenPdf::31                      0                       # What write queue length does an incoming req see
system.mem_ctrls.wrQLenPdf::32                      0                       # What write queue length does an incoming req see
system.mem_ctrls.wrQLenPdf::33                      0                       # What write queue length does an incoming req see
system.mem_ctrls.wrQLenPdf::34                      0                       # What write queue length does an incoming req see
system.mem_ctrls.wrQLenPdf::35                      0                       # What write queue length does an incoming req see
system.mem_ctrls.wrQLenPdf::36                      0                       # What write queue length does an incoming req see
system.mem_ctrls.wrQLenPdf::37                      0                       # What write queue length does an incoming req see
system.mem_ctrls.wrQLenPdf::38                      0                       # What write queue length does an incoming req see
system.mem_ctrls.wrQLenPdf::39                      0                       # What write queue length does an incoming req see
system.mem_ctrls.wrQLenPdf::40                      0                       # What write queue length does an incoming req see
system.mem_ctrls.wrQLenPdf::41                      0                       # What write queue length does an incoming req see
system.mem_ctrls.wrQLenPdf::42                      0                       # What write queue length does an incoming req see
system.mem_ctrls.wrQLenPdf::43                      0                       # What write queue length does an incoming req see
system.mem_ctrls.wrQLenPdf::44                      0                       # What write queue length does an incoming req see
system.mem_ctrls.wrQLenPdf::45                      0                       # What write queue length does an incoming req see
system.mem_ctrls.wrQLenPdf::46                      0                       # What write queue length does an incoming req see
system.mem_ctrls.wrQLenPdf::47                      0                       # What write queue length does an incoming req see
system.mem_ctrls.wrQLenPdf::48                      0                       # What write queue length does an incoming req see
system.mem_ctrls.wrQLenPdf::49                      0                       # What write queue length does an incoming req see
system.mem_ctrls.wrQLenPdf::50                      0                       # What write queue length does an incoming req see
system.mem_ctrls.wrQLenPdf::51                      0                       # What write queue length does an incoming req see
system.mem_ctrls.wrQLenPdf::52                      0                       # What write queue length does an incoming req see
system.mem_ctrls.wrQLenPdf::53                      0                       # What write queue length does an incoming req see
system.mem_ctrls.wrQLenPdf::54                      0                       # What write queue length does an incoming req see
system.mem_ctrls.wrQLenPdf::55                      0                       # What write queue length does an incoming req see
system.mem_ctrls.wrQLenPdf::56                      0                       # What write queue length does an incoming req see
system.mem_ctrls.wrQLenPdf::57                      0                       # What write queue length does an incoming req see
system.mem_ctrls.wrQLenPdf::58                      0                       # What write queue length does an incoming req see
system.mem_ctrls.wrQLenPdf::59                      0                       # What write queue length does an incoming req see
system.mem_ctrls.wrQLenPdf::60                      0                       # What write queue length does an incoming req see
system.mem_ctrls.wrQLenPdf::61                      0                       # What write queue length does an incoming req see
system.mem_ctrls.wrQLenPdf::62                      0                       # What write queue length does an incoming req see
system.mem_ctrls.wrQLenPdf::63                      0                       # What write queue length does an incoming req see
system.mem_ctrls.bytesPerActivate::samples          474                       # Bytes accessed per row activation
system.mem_ctrls.bytesPerActivate::mean    349.974684                       # Bytes accessed per row activation
system.mem_ctrls.bytesPerActivate::gmean   173.720475                       # Bytes accessed per row activation
system.mem_ctrls.bytesPerActivate::stdev   398.671387                       # Bytes accessed per row activation
system.mem_ctrls.bytesPerActivate::0-127          241     50.84%     50.84% # Bytes accessed per row activation
system.mem_ctrls.bytesPerActivate::128-255           57     12.03%     62.87% # Bytes accessed per row activation
system.mem_ctrls.bytesPerActivate::256-383           30      6.33%     69.20% # Bytes accessed per row activation
system.mem_ctrls.bytesPerActivate::384-511           11      2.32%     71.52% # Bytes accessed per row activation
system.mem_ctrls.bytesPerActivate::512-639           10      2.11%     73.63% # Bytes accessed per row activation
system.mem_ctrls.bytesPerActivate::640-767            6      1.27%     74.89% # Bytes accessed per row activation
system.mem_ctrls.bytesPerActivate::768-895            5      1.05%     75.95% # Bytes accessed per row activation
system.mem_ctrls.bytesPerActivate::896-1023            8      1.69%     77.64% # Bytes accessed per row activation
system.mem_ctrls.bytesPerActivate::1024-1151          106     22.36%    100.00% # Bytes accessed per row activation
system.mem_ctrls.bytesPerActivate::total          474                       # Bytes accessed per row activation
system.mem_ctrls.totQLat                     41686253                       # Total ticks spent queuing
system.mem_ctrls.totMemAccLat                90623753                       # Total ticks spent from burst creation until serviced by the DRAM
system.mem_ctrls.totBusLat                   13050000                       # Total ticks spent in databus transfers
system.mem_ctrls.avgQLat                     15971.74                       # Average queueing delay per DRAM burst
system.mem_ctrls.avgBusLat                    5000.00                       # Average bus latency per DRAM burst
system.mem_ctrls.avgMemAccLat                34721.74                       # Average memory access latency per DRAM burst
system.mem_ctrls.avgRdBW                      1115.05                       # Average DRAM read bandwidth in MiByte/s
system.mem_ctrls.avgWrBW                         0.00                       # Average achieved write bandwidth in MiByte/s
system.mem_ctrls.avgRdBWSys                   1115.47                       # Average system read bandwidth in MiByte/s
system.mem_ctrls.avgWrBWSys                      6.84                       # Average system write bandwidth in MiByte/s
system.mem_ctrls.peakBW                      12800.00                       # Theoretical peak bandwidth in MiByte/s
system.mem_ctrls.busUtil                         8.71                       # Data bus utilization in percentage
system.mem_ctrls.busUtilRead                     8.71                       # Data bus utilization in percentage for reads
system.mem_ctrls.busUtilWrite                    0.00                       # Data bus utilization in percentage for writes
system.mem_ctrls.avgRdQLen                       1.77                       # Average read queue length when enqueuing
system.mem_ctrls.avgWrQLen                       3.15                       # Average write queue length when enqueuing
system.mem_ctrls.readRowHits                     2131                       # Number of row buffer hits during reads
system.mem_ctrls.writeRowHits                       0                       # Number of row buffer hits during writes
system.mem_ctrls.readRowHitRate                 81.65                       # Row buffer hit rate for reads
system.mem_ctrls.writeRowHitRate                 0.00                       # Row buffer hit rate for writes
system.mem_ctrls.avgGap                      57010.28                       # Average gap between requests
system.mem_ctrls.pageHitRate                    81.15                       # Row buffer hit rate, read and write combined
system.mem_ctrls_0.actEnergy                  2842560                       # Energy for activate commands per rank (pJ)
system.mem_ctrls_0.preEnergy                  1551000                       # Energy for precharge commands per rank (pJ)
system.mem_ctrls_0.readEnergy                11551800                       # Energy for read commands per rank (pJ)
system.mem_ctrls_0.writeEnergy                      0                       # Energy for write commands per rank (pJ)
system.mem_ctrls_0.refreshEnergy              9662640                       # Energy for refresh commands per rank (pJ)
system.mem_ctrls_0.actBackEnergy             66143655                       # Energy for active background per rank (pJ)
system.mem_ctrls_0.preBackEnergy             30898500                       # Energy for precharge background per rank (pJ)
system.mem_ctrls_0.totalEnergy              122650155                       # Total energy per rank (pJ)
system.mem_ctrls_0.averagePower            827.605867                       # Core power per rank (mW)
system.mem_ctrls_0.memoryStateTime::IDLE     51225000                       # Time in different power states
system.mem_ctrls_0.memoryStateTime::REF       4940000                       # Time in different power states
system.mem_ctrls_0.memoryStateTime::PRE_PDN            0                       # Time in different power states
system.mem_ctrls_0.memoryStateTime::ACT      92520500                       # Time in different power states
system.mem_ctrls_0.memoryStateTime::ACT_PDN            0                       # Time in different power states
system.mem_ctrls_1.actEnergy                   733320                       # Energy for activate commands per rank (pJ)
system.mem_ctrls_1.preEnergy                   400125                       # Energy for precharge commands per rank (pJ)
system.mem_ctrls_1.readEnergy                 8541000                       # Energy for read commands per rank (pJ)
system.mem_ctrls_1.writeEnergy                      0                       # Energy for write commands per rank (pJ)
system.mem_ctrls_1.refreshEnergy              9662640                       # Energy for refresh commands per rank (pJ)
system.mem_ctrls_1.actBackEnergy             64964610                       # Energy for active background per rank (pJ)
system.mem_ctrls_1.preBackEnergy             31932750                       # Energy for precharge background per rank (pJ)
system.mem_ctrls_1.totalEnergy              116234445                       # Total energy per rank (pJ)
system.mem_ctrls_1.averagePower            784.314611                       # Core power per rank (mW)
system.mem_ctrls_1.memoryStateTime::IDLE     52257500                       # Time in different power states
system.mem_ctrls_1.memoryStateTime::REF       4940000                       # Time in different power states
system.mem_ctrls_1.memoryStateTime::PRE_PDN            0                       # Time in different power states
system.mem_ctrls_1.memoryStateTime::ACT      91015000                       # Time in different power states
system.mem_ctrls_1.memoryStateTime::ACT_PDN            0                       # Time in different power states
system.cpu00.branchPred.lookups                 45547                       # Number of BP lookups
system.cpu00.branchPred.condPredicted           42517                       # Number of conditional branches predicted
system.cpu00.branchPred.condIncorrect            1361                       # Number of conditional branches incorrect
system.cpu00.branchPred.BTBLookups              35013                       # Number of BTB lookups
system.cpu00.branchPred.BTBHits                 31224                       # Number of BTB hits
system.cpu00.branchPred.BTBCorrect                  0                       # Number of correct BTB predictions (this stat may not work properly.
system.cpu00.branchPred.BTBHitPct           89.178305                       # BTB Hit Percentage
system.cpu00.branchPred.usedRAS                  1193                       # Number of times the RAS was used to get a target.
system.cpu00.branchPred.RASInCorrect               16                       # Number of incorrect RAS predictions.
system.cpu_voltage_domain.voltage                   1                       # Voltage in Volts
system.cpu_clk_domain.clock                       500                       # Clock period in ticks
system.cpu00.dstage2_mmu.stage2_tlb.walker.walks            0                       # Table walker walks requested
system.cpu00.dstage2_mmu.stage2_tlb.walker.walkRequestOrigin_Requested::Data            0                       # Table walker requests started/completed, data/inst
system.cpu00.dstage2_mmu.stage2_tlb.walker.walkRequestOrigin_Requested::Inst            0                       # Table walker requests started/completed, data/inst
system.cpu00.dstage2_mmu.stage2_tlb.walker.walkRequestOrigin_Requested::total            0                       # Table walker requests started/completed, data/inst
system.cpu00.dstage2_mmu.stage2_tlb.walker.walkRequestOrigin_Completed::Data            0                       # Table walker requests started/completed, data/inst
system.cpu00.dstage2_mmu.stage2_tlb.walker.walkRequestOrigin_Completed::Inst            0                       # Table walker requests started/completed, data/inst
system.cpu00.dstage2_mmu.stage2_tlb.walker.walkRequestOrigin_Completed::total            0                       # Table walker requests started/completed, data/inst
system.cpu00.dstage2_mmu.stage2_tlb.walker.walkRequestOrigin::total            0                       # Table walker requests started/completed, data/inst
system.cpu00.dstage2_mmu.stage2_tlb.inst_hits            0                       # ITB inst hits
system.cpu00.dstage2_mmu.stage2_tlb.inst_misses            0                       # ITB inst misses
system.cpu00.dstage2_mmu.stage2_tlb.read_hits            0                       # DTB read hits
system.cpu00.dstage2_mmu.stage2_tlb.read_misses            0                       # DTB read misses
system.cpu00.dstage2_mmu.stage2_tlb.write_hits            0                       # DTB write hits
system.cpu00.dstage2_mmu.stage2_tlb.write_misses            0                       # DTB write misses
system.cpu00.dstage2_mmu.stage2_tlb.flush_tlb            0                       # Number of times complete TLB was flushed
system.cpu00.dstage2_mmu.stage2_tlb.flush_tlb_mva            0                       # Number of times TLB was flushed by MVA
system.cpu00.dstage2_mmu.stage2_tlb.flush_tlb_mva_asid            0                       # Number of times TLB was flushed by MVA & ASID
system.cpu00.dstage2_mmu.stage2_tlb.flush_tlb_asid            0                       # Number of times TLB was flushed by ASID
system.cpu00.dstage2_mmu.stage2_tlb.flush_entries            0                       # Number of entries that have been flushed from TLB
system.cpu00.dstage2_mmu.stage2_tlb.align_faults            0                       # Number of TLB faults due to alignment restrictions
system.cpu00.dstage2_mmu.stage2_tlb.prefetch_faults            0                       # Number of TLB faults due to prefetch
system.cpu00.dstage2_mmu.stage2_tlb.domain_faults            0                       # Number of TLB faults due to domain restrictions
system.cpu00.dstage2_mmu.stage2_tlb.perms_faults            0                       # Number of TLB faults due to permissions restrictions
system.cpu00.dstage2_mmu.stage2_tlb.read_accesses            0                       # DTB read accesses
system.cpu00.dstage2_mmu.stage2_tlb.write_accesses            0                       # DTB write accesses
system.cpu00.dstage2_mmu.stage2_tlb.inst_accesses            0                       # ITB inst accesses
system.cpu00.dstage2_mmu.stage2_tlb.hits            0                       # DTB hits
system.cpu00.dstage2_mmu.stage2_tlb.misses            0                       # DTB misses
system.cpu00.dstage2_mmu.stage2_tlb.accesses            0                       # DTB accesses
system.cpu00.dtb.walker.walks                       0                       # Table walker walks requested
system.cpu00.dtb.walker.walkRequestOrigin_Requested::Data            0                       # Table walker requests started/completed, data/inst
system.cpu00.dtb.walker.walkRequestOrigin_Requested::Inst            0                       # Table walker requests started/completed, data/inst
system.cpu00.dtb.walker.walkRequestOrigin_Requested::total            0                       # Table walker requests started/completed, data/inst
system.cpu00.dtb.walker.walkRequestOrigin_Completed::Data            0                       # Table walker requests started/completed, data/inst
system.cpu00.dtb.walker.walkRequestOrigin_Completed::Inst            0                       # Table walker requests started/completed, data/inst
system.cpu00.dtb.walker.walkRequestOrigin_Completed::total            0                       # Table walker requests started/completed, data/inst
system.cpu00.dtb.walker.walkRequestOrigin::total            0                       # Table walker requests started/completed, data/inst
system.cpu00.dtb.inst_hits                          0                       # ITB inst hits
system.cpu00.dtb.inst_misses                        0                       # ITB inst misses
system.cpu00.dtb.read_hits                          0                       # DTB read hits
system.cpu00.dtb.read_misses                        0                       # DTB read misses
system.cpu00.dtb.write_hits                         0                       # DTB write hits
system.cpu00.dtb.write_misses                       0                       # DTB write misses
system.cpu00.dtb.flush_tlb                          0                       # Number of times complete TLB was flushed
system.cpu00.dtb.flush_tlb_mva                      0                       # Number of times TLB was flushed by MVA
system.cpu00.dtb.flush_tlb_mva_asid                 0                       # Number of times TLB was flushed by MVA & ASID
system.cpu00.dtb.flush_tlb_asid                     0                       # Number of times TLB was flushed by ASID
system.cpu00.dtb.flush_entries                      0                       # Number of entries that have been flushed from TLB
system.cpu00.dtb.align_faults                       0                       # Number of TLB faults due to alignment restrictions
system.cpu00.dtb.prefetch_faults                    0                       # Number of TLB faults due to prefetch
system.cpu00.dtb.domain_faults                      0                       # Number of TLB faults due to domain restrictions
system.cpu00.dtb.perms_faults                       0                       # Number of TLB faults due to permissions restrictions
system.cpu00.dtb.read_accesses                      0                       # DTB read accesses
system.cpu00.dtb.write_accesses                     0                       # DTB write accesses
system.cpu00.dtb.inst_accesses                      0                       # ITB inst accesses
system.cpu00.dtb.hits                               0                       # DTB hits
system.cpu00.dtb.misses                             0                       # DTB misses
system.cpu00.dtb.accesses                           0                       # DTB accesses
system.cpu00.istage2_mmu.stage2_tlb.walker.walks            0                       # Table walker walks requested
system.cpu00.istage2_mmu.stage2_tlb.walker.walkRequestOrigin_Requested::Data            0                       # Table walker requests started/completed, data/inst
system.cpu00.istage2_mmu.stage2_tlb.walker.walkRequestOrigin_Requested::Inst            0                       # Table walker requests started/completed, data/inst
system.cpu00.istage2_mmu.stage2_tlb.walker.walkRequestOrigin_Requested::total            0                       # Table walker requests started/completed, data/inst
system.cpu00.istage2_mmu.stage2_tlb.walker.walkRequestOrigin_Completed::Data            0                       # Table walker requests started/completed, data/inst
system.cpu00.istage2_mmu.stage2_tlb.walker.walkRequestOrigin_Completed::Inst            0                       # Table walker requests started/completed, data/inst
system.cpu00.istage2_mmu.stage2_tlb.walker.walkRequestOrigin_Completed::total            0                       # Table walker requests started/completed, data/inst
system.cpu00.istage2_mmu.stage2_tlb.walker.walkRequestOrigin::total            0                       # Table walker requests started/completed, data/inst
system.cpu00.istage2_mmu.stage2_tlb.inst_hits            0                       # ITB inst hits
system.cpu00.istage2_mmu.stage2_tlb.inst_misses            0                       # ITB inst misses
system.cpu00.istage2_mmu.stage2_tlb.read_hits            0                       # DTB read hits
system.cpu00.istage2_mmu.stage2_tlb.read_misses            0                       # DTB read misses
system.cpu00.istage2_mmu.stage2_tlb.write_hits            0                       # DTB write hits
system.cpu00.istage2_mmu.stage2_tlb.write_misses            0                       # DTB write misses
system.cpu00.istage2_mmu.stage2_tlb.flush_tlb            0                       # Number of times complete TLB was flushed
system.cpu00.istage2_mmu.stage2_tlb.flush_tlb_mva            0                       # Number of times TLB was flushed by MVA
system.cpu00.istage2_mmu.stage2_tlb.flush_tlb_mva_asid            0                       # Number of times TLB was flushed by MVA & ASID
system.cpu00.istage2_mmu.stage2_tlb.flush_tlb_asid            0                       # Number of times TLB was flushed by ASID
system.cpu00.istage2_mmu.stage2_tlb.flush_entries            0                       # Number of entries that have been flushed from TLB
system.cpu00.istage2_mmu.stage2_tlb.align_faults            0                       # Number of TLB faults due to alignment restrictions
system.cpu00.istage2_mmu.stage2_tlb.prefetch_faults            0                       # Number of TLB faults due to prefetch
system.cpu00.istage2_mmu.stage2_tlb.domain_faults            0                       # Number of TLB faults due to domain restrictions
system.cpu00.istage2_mmu.stage2_tlb.perms_faults            0                       # Number of TLB faults due to permissions restrictions
system.cpu00.istage2_mmu.stage2_tlb.read_accesses            0                       # DTB read accesses
system.cpu00.istage2_mmu.stage2_tlb.write_accesses            0                       # DTB write accesses
system.cpu00.istage2_mmu.stage2_tlb.inst_accesses            0                       # ITB inst accesses
system.cpu00.istage2_mmu.stage2_tlb.hits            0                       # DTB hits
system.cpu00.istage2_mmu.stage2_tlb.misses            0                       # DTB misses
system.cpu00.istage2_mmu.stage2_tlb.accesses            0                       # DTB accesses
system.cpu00.itb.walker.walks                       0                       # Table walker walks requested
system.cpu00.itb.walker.walkRequestOrigin_Requested::Data            0                       # Table walker requests started/completed, data/inst
system.cpu00.itb.walker.walkRequestOrigin_Requested::Inst            0                       # Table walker requests started/completed, data/inst
system.cpu00.itb.walker.walkRequestOrigin_Requested::total            0                       # Table walker requests started/completed, data/inst
system.cpu00.itb.walker.walkRequestOrigin_Completed::Data            0                       # Table walker requests started/completed, data/inst
system.cpu00.itb.walker.walkRequestOrigin_Completed::Inst            0                       # Table walker requests started/completed, data/inst
system.cpu00.itb.walker.walkRequestOrigin_Completed::total            0                       # Table walker requests started/completed, data/inst
system.cpu00.itb.walker.walkRequestOrigin::total            0                       # Table walker requests started/completed, data/inst
system.cpu00.itb.inst_hits                          0                       # ITB inst hits
system.cpu00.itb.inst_misses                        0                       # ITB inst misses
system.cpu00.itb.read_hits                          0                       # DTB read hits
system.cpu00.itb.read_misses                        0                       # DTB read misses
system.cpu00.itb.write_hits                         0                       # DTB write hits
system.cpu00.itb.write_misses                       0                       # DTB write misses
system.cpu00.itb.flush_tlb                          0                       # Number of times complete TLB was flushed
system.cpu00.itb.flush_tlb_mva                      0                       # Number of times TLB was flushed by MVA
system.cpu00.itb.flush_tlb_mva_asid                 0                       # Number of times TLB was flushed by MVA & ASID
system.cpu00.itb.flush_tlb_asid                     0                       # Number of times TLB was flushed by ASID
system.cpu00.itb.flush_entries                      0                       # Number of entries that have been flushed from TLB
system.cpu00.itb.align_faults                       0                       # Number of TLB faults due to alignment restrictions
system.cpu00.itb.prefetch_faults                    0                       # Number of TLB faults due to prefetch
system.cpu00.itb.domain_faults                      0                       # Number of TLB faults due to domain restrictions
system.cpu00.itb.perms_faults                       0                       # Number of TLB faults due to permissions restrictions
system.cpu00.itb.read_accesses                      0                       # DTB read accesses
system.cpu00.itb.write_accesses                     0                       # DTB write accesses
system.cpu00.itb.inst_accesses                      0                       # ITB inst accesses
system.cpu00.itb.hits                               0                       # DTB hits
system.cpu00.itb.misses                             0                       # DTB misses
system.cpu00.itb.accesses                           0                       # DTB accesses
system.cpu00.workload.num_syscalls                424                       # Number of system calls
system.cpu00.numCycles                         299612                       # number of cpu cycles simulated
system.cpu00.numWorkItemsStarted                    0                       # number of work items this cpu started
system.cpu00.numWorkItemsCompleted                  0                       # number of work items this cpu completed
system.cpu00.fetch.icacheStallCycles            46405                       # Number of cycles fetch is stalled on an Icache miss
system.cpu00.fetch.Insts                       353699                       # Number of instructions fetch has processed
system.cpu00.fetch.Branches                     45547                       # Number of branches that fetch encountered
system.cpu00.fetch.predictedBranches            32417                       # Number of branches that fetch has predicted taken
system.cpu00.fetch.Cycles                      206450                       # Number of cycles fetch has run and was not squashing or blocked
system.cpu00.fetch.SquashCycles                  2981                       # Number of cycles fetch has spent squashing
system.cpu00.fetch.MiscStallCycles                  1                       # Number of cycles fetch has spent waiting on interrupts, or bad addresses, or out of MSHRs
system.cpu00.fetch.PendingTrapStallCycles            5                       # Number of stall cycles due to pending traps
system.cpu00.fetch.CacheLines                   32202                       # Number of cache lines fetched
system.cpu00.fetch.IcacheSquashes                 730                       # Number of outstanding Icache misses that were squashed
system.cpu00.fetch.rateDist::samples           254351                       # Number of instructions fetched each cycle (Total)
system.cpu00.fetch.rateDist::mean            1.525569                       # Number of instructions fetched each cycle (Total)
system.cpu00.fetch.rateDist::stdev           2.915080                       # Number of instructions fetched each cycle (Total)
system.cpu00.fetch.rateDist::underflows             0      0.00%      0.00% # Number of instructions fetched each cycle (Total)
system.cpu00.fetch.rateDist::0                 192104     75.53%     75.53% # Number of instructions fetched each cycle (Total)
system.cpu00.fetch.rateDist::1                   3058      1.20%     76.73% # Number of instructions fetched each cycle (Total)
system.cpu00.fetch.rateDist::2                   5899      2.32%     79.05% # Number of instructions fetched each cycle (Total)
system.cpu00.fetch.rateDist::3                   1326      0.52%     79.57% # Number of instructions fetched each cycle (Total)
system.cpu00.fetch.rateDist::4                   5805      2.28%     81.85% # Number of instructions fetched each cycle (Total)
system.cpu00.fetch.rateDist::5                   1112      0.44%     82.29% # Number of instructions fetched each cycle (Total)
system.cpu00.fetch.rateDist::6                   5239      2.06%     84.35% # Number of instructions fetched each cycle (Total)
system.cpu00.fetch.rateDist::7                   9482      3.73%     88.08% # Number of instructions fetched each cycle (Total)
system.cpu00.fetch.rateDist::8                  30326     11.92%    100.00% # Number of instructions fetched each cycle (Total)
system.cpu00.fetch.rateDist::overflows              0      0.00%    100.00% # Number of instructions fetched each cycle (Total)
system.cpu00.fetch.rateDist::min_value              0                       # Number of instructions fetched each cycle (Total)
system.cpu00.fetch.rateDist::max_value              8                       # Number of instructions fetched each cycle (Total)
system.cpu00.fetch.rateDist::total             254351                       # Number of instructions fetched each cycle (Total)
system.cpu00.fetch.branchRate                0.152020                       # Number of branch fetches per cycle
system.cpu00.fetch.rate                      1.180523                       # Number of inst fetches per cycle
system.cpu00.decode.IdleCycles                  42049                       # Number of cycles decode is idle
system.cpu00.decode.BlockedCycles              156020                       # Number of cycles decode is blocked
system.cpu00.decode.RunCycles                   48828                       # Number of cycles decode is running
system.cpu00.decode.UnblockCycles                6314                       # Number of cycles decode is unblocking
system.cpu00.decode.SquashCycles                 1140                       # Number of cycles decode is squashing
system.cpu00.decode.BranchResolved               1362                       # Number of times decode resolved a branch
system.cpu00.decode.BranchMispred                 361                       # Number of times decode detected a branch misprediction
system.cpu00.decode.DecodedInsts               376907                       # Number of instructions handled by decode
system.cpu00.decode.SquashedInsts                1347                       # Number of squashed instructions handled by decode
system.cpu00.rename.SquashCycles                 1140                       # Number of cycles rename is squashing
system.cpu00.rename.IdleCycles                  45564                       # Number of cycles rename is idle
system.cpu00.rename.BlockCycles                  5259                       # Number of cycles rename is blocking
system.cpu00.rename.serializeStallCycles        20925                       # count of cycles rename stalled for serializing inst
system.cpu00.rename.RunCycles                   51517                       # Number of cycles rename is running
system.cpu00.rename.UnblockCycles              129946                       # Number of cycles rename is unblocking
system.cpu00.rename.RenamedInsts               372045                       # Number of instructions processed by rename
system.cpu00.rename.ROBFullEvents                   9                       # Number of times rename has blocked due to ROB full
system.cpu00.rename.IQFullEvents                 1420                       # Number of times rename has blocked due to IQ full
system.cpu00.rename.LQFullEvents                 3362                       # Number of times rename has blocked due to LQ full
system.cpu00.rename.SQFullEvents               123089                       # Number of times rename has blocked due to SQ full
system.cpu00.rename.RenamedOperands            472736                       # Number of destination operands rename has renamed
system.cpu00.rename.RenameLookups             1851552                       # Number of register rename lookups that rename has made
system.cpu00.rename.int_rename_lookups         580139                       # Number of integer rename lookups
system.cpu00.rename.fp_rename_lookups              22                       # Number of floating rename lookups
system.cpu00.rename.CommittedMaps              445455                       # Number of HB maps that are committed
system.cpu00.rename.UndoneMaps                  27281                       # Number of HB maps that are undone due to squashing
system.cpu00.rename.serializingInsts              191                       # count of serializing insts renamed
system.cpu00.rename.tempSerializingInsts          190                       # count of temporary serializing insts renamed
system.cpu00.rename.skidInsts                   35653                       # count of insts added to the skid buffer
system.cpu00.memDep0.insertedLoads              49408                       # Number of loads inserted to the mem dependence unit.
system.cpu00.memDep0.insertedStores             48582                       # Number of stores inserted to the mem dependence unit.
system.cpu00.memDep0.conflictingLoads             861                       # Number of conflicting loads.
system.cpu00.memDep0.conflictingStores            584                       # Number of conflicting stores.
system.cpu00.iq.iqInstsAdded                   367202                       # Number of instructions added to the IQ (excludes non-spec)
system.cpu00.iq.iqNonSpecInstsAdded               335                       # Number of non-speculative instructions added to the IQ
system.cpu00.iq.iqInstsIssued                  359876                       # Number of instructions issued
system.cpu00.iq.iqSquashedInstsIssued             127                       # Number of squashed instructions issued
system.cpu00.iq.iqSquashedInstsExamined         19096                       # Number of squashed instructions iterated over during squash; mainly for profiling
system.cpu00.iq.iqSquashedOperandsExamined        46542                       # Number of squashed operands that are examined and possibly removed from graph
system.cpu00.iq.iqSquashedNonSpecRemoved           77                       # Number of squashed non-spec instructions that were removed
system.cpu00.iq.issued_per_cycle::samples       254351                       # Number of insts issued each cycle
system.cpu00.iq.issued_per_cycle::mean       1.414879                       # Number of insts issued each cycle
system.cpu00.iq.issued_per_cycle::stdev      2.274925                       # Number of insts issued each cycle
system.cpu00.iq.issued_per_cycle::underflows            0      0.00%      0.00% # Number of insts issued each cycle
system.cpu00.iq.issued_per_cycle::0            159116     62.56%     62.56% # Number of insts issued each cycle
system.cpu00.iq.issued_per_cycle::1             18412      7.24%     69.80% # Number of insts issued each cycle
system.cpu00.iq.issued_per_cycle::2             11693      4.60%     74.39% # Number of insts issued each cycle
system.cpu00.iq.issued_per_cycle::3             18997      7.47%     81.86% # Number of insts issued each cycle
system.cpu00.iq.issued_per_cycle::4             17504      6.88%     88.74% # Number of insts issued each cycle
system.cpu00.iq.issued_per_cycle::5              5835      2.29%     91.04% # Number of insts issued each cycle
system.cpu00.iq.issued_per_cycle::6              5721      2.25%     93.29% # Number of insts issued each cycle
system.cpu00.iq.issued_per_cycle::7              9014      3.54%     96.83% # Number of insts issued each cycle
system.cpu00.iq.issued_per_cycle::8              8059      3.17%    100.00% # Number of insts issued each cycle
system.cpu00.iq.issued_per_cycle::overflows            0      0.00%    100.00% # Number of insts issued each cycle
system.cpu00.iq.issued_per_cycle::min_value            0                       # Number of insts issued each cycle
system.cpu00.iq.issued_per_cycle::max_value            8                       # Number of insts issued each cycle
system.cpu00.iq.issued_per_cycle::total        254351                       # Number of insts issued each cycle
system.cpu00.iq.fu_full::No_OpClass                 0      0.00%      0.00% # attempts to use FU when none available
system.cpu00.iq.fu_full::IntAlu                  5401     43.75%     43.75% # attempts to use FU when none available
system.cpu00.iq.fu_full::IntMult                 6366     51.56%     95.31% # attempts to use FU when none available
system.cpu00.iq.fu_full::IntDiv                     0      0.00%     95.31% # attempts to use FU when none available
system.cpu00.iq.fu_full::FloatAdd                   0      0.00%     95.31% # attempts to use FU when none available
system.cpu00.iq.fu_full::FloatCmp                   0      0.00%     95.31% # attempts to use FU when none available
system.cpu00.iq.fu_full::FloatCvt                   0      0.00%     95.31% # attempts to use FU when none available
system.cpu00.iq.fu_full::FloatMult                  0      0.00%     95.31% # attempts to use FU when none available
system.cpu00.iq.fu_full::FloatDiv                   0      0.00%     95.31% # attempts to use FU when none available
system.cpu00.iq.fu_full::FloatSqrt                  0      0.00%     95.31% # attempts to use FU when none available
system.cpu00.iq.fu_full::SimdAdd                    0      0.00%     95.31% # attempts to use FU when none available
system.cpu00.iq.fu_full::SimdAddAcc                 0      0.00%     95.31% # attempts to use FU when none available
system.cpu00.iq.fu_full::SimdAlu                    0      0.00%     95.31% # attempts to use FU when none available
system.cpu00.iq.fu_full::SimdCmp                    0      0.00%     95.31% # attempts to use FU when none available
system.cpu00.iq.fu_full::SimdCvt                    0      0.00%     95.31% # attempts to use FU when none available
system.cpu00.iq.fu_full::SimdMisc                   0      0.00%     95.31% # attempts to use FU when none available
system.cpu00.iq.fu_full::SimdMult                   0      0.00%     95.31% # attempts to use FU when none available
system.cpu00.iq.fu_full::SimdMultAcc                0      0.00%     95.31% # attempts to use FU when none available
system.cpu00.iq.fu_full::SimdShift                  0      0.00%     95.31% # attempts to use FU when none available
system.cpu00.iq.fu_full::SimdShiftAcc               0      0.00%     95.31% # attempts to use FU when none available
system.cpu00.iq.fu_full::SimdSqrt                   0      0.00%     95.31% # attempts to use FU when none available
system.cpu00.iq.fu_full::SimdFloatAdd               0      0.00%     95.31% # attempts to use FU when none available
[...]
system.tol2bus.snoop_fanout::3                      0      0.00%      0.00% # Request fanout histogram
system.tol2bus.snoop_fanout::4                      0      0.00%      0.00% # Request fanout histogram
system.tol2bus.snoop_fanout::5                      0      0.00%      0.00% # Request fanout histogram
system.tol2bus.snoop_fanout::6                      0      0.00%      0.00% # Request fanout histogram
system.tol2bus.snoop_fanout::7                      0      0.00%      0.00% # Request fanout histogram
system.tol2bus.snoop_fanout::8                      0      0.00%      0.00% # Request fanout histogram
system.tol2bus.snoop_fanout::9                      0      0.00%      0.00% # Request fanout histogram
system.tol2bus.snoop_fanout::10                     0      0.00%      0.00% # Request fanout histogram
system.tol2bus.snoop_fanout::11                     0      0.00%      0.00% # Request fanout histogram
system.tol2bus.snoop_fanout::12                     0      0.00%      0.00% # Request fanout histogram
system.tol2bus.snoop_fanout::13                     0      0.00%      0.00% # Request fanout histogram
system.tol2bus.snoop_fanout::14                     0      0.00%      0.00% # Request fanout histogram
system.tol2bus.snoop_fanout::15                     0      0.00%      0.00% # Request fanout histogram
system.tol2bus.snoop_fanout::16                     0      0.00%      0.00% # Request fanout histogram
system.tol2bus.snoop_fanout::17                     0      0.00%      0.00% # Request fanout histogram
system.tol2bus.snoop_fanout::18                     0      0.00%      0.00% # Request fanout histogram
system.tol2bus.snoop_fanout::19                     0      0.00%      0.00% # Request fanout histogram
system.tol2bus.snoop_fanout::20                     0      0.00%      0.00% # Request fanout histogram
system.tol2bus.snoop_fanout::21                     0      0.00%      0.00% # Request fanout histogram
system.tol2bus.snoop_fanout::22                     0      0.00%      0.00% # Request fanout histogram
system.tol2bus.snoop_fanout::23                     0      0.00%      0.00% # Request fanout histogram
system.tol2bus.snoop_fanout::24                     0      0.00%      0.00% # Request fanout histogram
system.tol2bus.snoop_fanout::25                     0      0.00%      0.00% # Request fanout histogram
system.tol2bus.snoop_fanout::26                     0      0.00%      0.00% # Request fanout histogram
system.tol2bus.snoop_fanout::27                     0      0.00%      0.00% # Request fanout histogram
system.tol2bus.snoop_fanout::28                     0      0.00%      0.00% # Request fanout histogram
system.tol2bus.snoop_fanout::29                     0      0.00%      0.00% # Request fanout histogram
system.tol2bus.snoop_fanout::30                     0      0.00%      0.00% # Request fanout histogram
system.tol2bus.snoop_fanout::31                     0      0.00%      0.00% # Request fanout histogram
system.tol2bus.snoop_fanout::32                     0      0.00%      0.00% # Request fanout histogram
system.tol2bus.snoop_fanout::33                     0      0.00%      0.00% # Request fanout histogram
system.tol2bus.snoop_fanout::34                     0      0.00%      0.00% # Request fanout histogram
system.tol2bus.snoop_fanout::35                     0      0.00%      0.00% # Request fanout histogram
system.tol2bus.snoop_fanout::36                     0      0.00%      0.00% # Request fanout histogram
system.tol2bus.snoop_fanout::37                     0      0.00%      0.00% # Request fanout histogram
system.tol2bus.snoop_fanout::38                     0      0.00%      0.00% # Request fanout histogram
system.tol2bus.snoop_fanout::39                     0      0.00%      0.00% # Request fanout histogram
system.tol2bus.snoop_fanout::40                     0      0.00%      0.00% # Request fanout histogram
system.tol2bus.snoop_fanout::41                     0      0.00%      0.00% # Request fanout histogram
system.tol2bus.snoop_fanout::42                     0      0.00%      0.00% # Request fanout histogram
system.tol2bus.snoop_fanout::43                     0      0.00%      0.00% # Request fanout histogram
system.tol2bus.snoop_fanout::44                     0      0.00%      0.00% # Request fanout histogram
system.tol2bus.snoop_fanout::45                     0      0.00%      0.00% # Request fanout histogram
system.tol2bus.snoop_fanout::46                     0      0.00%      0.00% # Request fanout histogram
system.tol2bus.snoop_fanout::47                     0      0.00%      0.00% # Request fanout histogram
system.tol2bus.snoop_fanout::48                     0      0.00%      0.00% # Request fanout histogram
system.tol2bus.snoop_fanout::49                     0      0.00%      0.00% # Request fanout histogram
system.tol2bus.snoop_fanout::50                     0      0.00%      0.00% # Request fanout histogram
system.tol2bus.snoop_fanout::51                     0      0.00%      0.00% # Request fanout histogram
system.tol2bus.snoop_fanout::52                     0      0.00%      0.00% # Request fanout histogram
system.tol2bus.snoop_fanout::53                     0      0.00%      0.00% # Request fanout histogram
system.tol2bus.snoop_fanout::54                     0      0.00%      0.00% # Request fanout histogram
system.tol2bus.snoop_fanout::55                     0      0.00%      0.00% # Request fanout histogram
system.tol2bus.snoop_fanout::56                     0      0.00%      0.00% # Request fanout histogram
system.tol2bus.snoop_fanout::57                     0      0.00%      0.00% # Request fanout histogram
system.tol2bus.snoop_fanout::58                     0      0.00%      0.00% # Request fanout histogram
system.tol2bus.snoop_fanout::59                     0      0.00%      0.00% # Request fanout histogram
system.tol2bus.snoop_fanout::60                     0      0.00%      0.00% # Request fanout histogram
system.tol2bus.snoop_fanout::61                     0      0.00%      0.00% # Request fanout histogram
system.tol2bus.snoop_fanout::62                     0      0.00%      0.00% # Request fanout histogram
system.tol2bus.snoop_fanout::63                 40809    100.00%    100.00% # Request fanout histogram
system.tol2bus.snoop_fanout::64                     0      0.00%    100.00% # Request fanout histogram
system.tol2bus.snoop_fanout::overflows              0      0.00%    100.00% # Request fanout histogram
system.tol2bus.snoop_fanout::min_value             63                       # Request fanout histogram
system.tol2bus.snoop_fanout::max_value             63                       # Request fanout histogram
system.tol2bus.snoop_fanout::total              40809                       # Request fanout histogram
system.tol2bus.reqLayer0.occupancy           26745983                       # Layer occupancy (ticks)
system.tol2bus.reqLayer0.utilization             17.9                       # Layer utilization (%)
system.tol2bus.respLayer0.occupancy           1088248                       # Layer occupancy (ticks)
system.tol2bus.respLayer0.utilization             0.7                       # Layer utilization (%)
system.tol2bus.respLayer1.occupancy           5434491                       # Layer occupancy (ticks)
system.tol2bus.respLayer1.utilization             3.6                       # Layer utilization (%)
system.tol2bus.respLayer4.occupancy             93947                       # Layer occupancy (ticks)
system.tol2bus.respLayer4.utilization             0.1                       # Layer utilization (%)
system.tol2bus.respLayer5.occupancy           1306167                       # Layer occupancy (ticks)
system.tol2bus.respLayer5.utilization             0.9                       # Layer utilization (%)
system.tol2bus.respLayer8.occupancy             85982                       # Layer occupancy (ticks)
system.tol2bus.respLayer8.utilization             0.1                       # Layer utilization (%)
system.tol2bus.respLayer9.occupancy           1283168                       # Layer occupancy (ticks)
system.tol2bus.respLayer9.utilization             0.9                       # Layer utilization (%)
system.tol2bus.respLayer12.occupancy            96180                       # Layer occupancy (ticks)
system.tol2bus.respLayer12.utilization            0.1                       # Layer utilization (%)
system.tol2bus.respLayer13.occupancy          1316918                       # Layer occupancy (ticks)
system.tol2bus.respLayer13.utilization            0.9                       # Layer utilization (%)
system.tol2bus.respLayer16.occupancy            88439                       # Layer occupancy (ticks)
system.tol2bus.respLayer16.utilization            0.1                       # Layer utilization (%)
system.tol2bus.respLayer17.occupancy          1379368                       # Layer occupancy (ticks)
system.tol2bus.respLayer17.utilization            0.9                       # Layer utilization (%)
system.tol2bus.respLayer20.occupancy            80997                       # Layer occupancy (ticks)
system.tol2bus.respLayer20.utilization            0.1                       # Layer utilization (%)
system.tol2bus.respLayer21.occupancy          1402938                       # Layer occupancy (ticks)
system.tol2bus.respLayer21.utilization            0.9                       # Layer utilization (%)
system.tol2bus.respLayer24.occupancy            89939                       # Layer occupancy (ticks)
system.tol2bus.respLayer24.utilization            0.1                       # Layer utilization (%)
system.tol2bus.respLayer25.occupancy          1390410                       # Layer occupancy (ticks)
system.tol2bus.respLayer25.utilization            0.9                       # Layer utilization (%)
system.tol2bus.respLayer28.occupancy            83495                       # Layer occupancy (ticks)
system.tol2bus.respLayer28.utilization            0.1                       # Layer utilization (%)
system.tol2bus.respLayer29.occupancy          1409384                       # Layer occupancy (ticks)
system.tol2bus.respLayer29.utilization            0.9                       # Layer utilization (%)
system.tol2bus.respLayer32.occupancy            88446                       # Layer occupancy (ticks)
system.tol2bus.respLayer32.utilization            0.1                       # Layer utilization (%)
system.tol2bus.respLayer33.occupancy          1412137                       # Layer occupancy (ticks)
system.tol2bus.respLayer33.utilization            0.9                       # Layer utilization (%)
system.tol2bus.respLayer36.occupancy            88951                       # Layer occupancy (ticks)
system.tol2bus.respLayer36.utilization            0.1                       # Layer utilization (%)
system.tol2bus.respLayer37.occupancy          1370982                       # Layer occupancy (ticks)
system.tol2bus.respLayer37.utilization            0.9                       # Layer utilization (%)
system.tol2bus.respLayer40.occupancy            85488                       # Layer occupancy (ticks)
system.tol2bus.respLayer40.utilization            0.1                       # Layer utilization (%)
system.tol2bus.respLayer41.occupancy          1426648                       # Layer occupancy (ticks)
system.tol2bus.respLayer41.utilization            1.0                       # Layer utilization (%)
system.tol2bus.respLayer44.occupancy            82486                       # Layer occupancy (ticks)
system.tol2bus.respLayer44.utilization            0.1                       # Layer utilization (%)
system.tol2bus.respLayer45.occupancy          1408108                       # Layer occupancy (ticks)
system.tol2bus.respLayer45.utilization            0.9                       # Layer utilization (%)
system.tol2bus.respLayer48.occupancy            85470                       # Layer occupancy (ticks)
system.tol2bus.respLayer48.utilization            0.1                       # Layer utilization (%)
system.tol2bus.respLayer49.occupancy          1445379                       # Layer occupancy (ticks)
system.tol2bus.respLayer49.utilization            1.0                       # Layer utilization (%)
system.tol2bus.respLayer52.occupancy            88461                       # Layer occupancy (ticks)
system.tol2bus.respLayer52.utilization            0.1                       # Layer utilization (%)
system.tol2bus.respLayer53.occupancy          1436337                       # Layer occupancy (ticks)
system.tol2bus.respLayer53.utilization            1.0                       # Layer utilization (%)
system.tol2bus.respLayer56.occupancy            88466                       # Layer occupancy (ticks)
system.tol2bus.respLayer56.utilization            0.1                       # Layer utilization (%)
system.tol2bus.respLayer57.occupancy          1424420                       # Layer occupancy (ticks)
system.tol2bus.respLayer57.utilization            1.0                       # Layer utilization (%)
system.tol2bus.respLayer60.occupancy            85467                       # Layer occupancy (ticks)
system.tol2bus.respLayer60.utilization            0.1                       # Layer utilization (%)
system.tol2bus.respLayer61.occupancy          1364492                       # Layer occupancy (ticks)
system.tol2bus.respLayer61.utilization            0.9                       # Layer utilization (%)
system.tol2bus.respLayer64.occupancy            88959                       # Layer occupancy (ticks)
system.tol2bus.respLayer64.utilization            0.1                       # Layer utilization (%)
system.tol2bus.respLayer65.occupancy          1423607                       # Layer occupancy (ticks)
system.tol2bus.respLayer65.utilization            1.0                       # Layer utilization (%)
system.tol2bus.respLayer68.occupancy            83487                       # Layer occupancy (ticks)
system.tol2bus.respLayer68.utilization            0.1                       # Layer utilization (%)
system.tol2bus.respLayer69.occupancy          1412134                       # Layer occupancy (ticks)
system.tol2bus.respLayer69.utilization            0.9                       # Layer utilization (%)
system.tol2bus.respLayer72.occupancy            83494                       # Layer occupancy (ticks)
system.tol2bus.respLayer72.utilization            0.1                       # Layer utilization (%)
system.tol2bus.respLayer73.occupancy          1394448                       # Layer occupancy (ticks)
system.tol2bus.respLayer73.utilization            0.9                       # Layer utilization (%)
system.tol2bus.respLayer76.occupancy            84000                       # Layer occupancy (ticks)
system.tol2bus.respLayer76.utilization            0.1                       # Layer utilization (%)
system.tol2bus.respLayer77.occupancy          1390419                       # Layer occupancy (ticks)
system.tol2bus.respLayer77.utilization            0.9                       # Layer utilization (%)
system.tol2bus.respLayer80.occupancy            85501                       # Layer occupancy (ticks)
system.tol2bus.respLayer80.utilization            0.1                       # Layer utilization (%)
system.tol2bus.respLayer81.occupancy          1403178                       # Layer occupancy (ticks)
system.tol2bus.respLayer81.utilization            0.9                       # Layer utilization (%)
system.tol2bus.respLayer84.occupancy            82500                       # Layer occupancy (ticks)
system.tol2bus.respLayer84.utilization            0.1                       # Layer utilization (%)
system.tol2bus.respLayer85.occupancy          1355249                       # Layer occupancy (ticks)
system.tol2bus.respLayer85.utilization            0.9                       # Layer utilization (%)
system.tol2bus.respLayer88.occupancy            87251                       # Layer occupancy (ticks)
system.tol2bus.respLayer88.utilization            0.1                       # Layer utilization (%)
system.tol2bus.respLayer89.occupancy          1398194                       # Layer occupancy (ticks)
system.tol2bus.respLayer89.utilization            0.9                       # Layer utilization (%)
system.tol2bus.respLayer92.occupancy            85999                       # Layer occupancy (ticks)
system.tol2bus.respLayer92.utilization            0.1                       # Layer utilization (%)
system.tol2bus.respLayer93.occupancy          1405167                       # Layer occupancy (ticks)
system.tol2bus.respLayer93.utilization            0.9                       # Layer utilization (%)
system.tol2bus.respLayer96.occupancy            85500                       # Layer occupancy (ticks)
system.tol2bus.respLayer96.utilization            0.1                       # Layer utilization (%)
system.tol2bus.respLayer97.occupancy          1423420                       # Layer occupancy (ticks)
system.tol2bus.respLayer97.utilization            1.0                       # Layer utilization (%)
system.tol2bus.respLayer100.occupancy           84251                       # Layer occupancy (ticks)
system.tol2bus.respLayer100.utilization           0.1                       # Layer utilization (%)
system.tol2bus.respLayer101.occupancy         1375220                       # Layer occupancy (ticks)
system.tol2bus.respLayer101.utilization           0.9                       # Layer utilization (%)
system.tol2bus.respLayer104.occupancy           85751                       # Layer occupancy (ticks)
system.tol2bus.respLayer104.utilization           0.1                       # Layer utilization (%)
system.tol2bus.respLayer105.occupancy         1422923                       # Layer occupancy (ticks)
system.tol2bus.respLayer105.utilization           0.9                       # Layer utilization (%)
system.tol2bus.respLayer108.occupancy           86250                       # Layer occupancy (ticks)
system.tol2bus.respLayer108.utilization           0.1                       # Layer utilization (%)
system.tol2bus.respLayer109.occupancy         1368994                       # Layer occupancy (ticks)
system.tol2bus.respLayer109.utilization           0.9                       # Layer utilization (%)
system.tol2bus.respLayer112.occupancy           84000                       # Layer occupancy (ticks)
system.tol2bus.respLayer112.utilization           0.1                       # Layer utilization (%)
system.tol2bus.respLayer113.occupancy         1397237                       # Layer occupancy (ticks)
system.tol2bus.respLayer113.utilization           0.9                       # Layer utilization (%)
system.tol2bus.respLayer116.occupancy           83995                       # Layer occupancy (ticks)
system.tol2bus.respLayer116.utilization           0.1                       # Layer utilization (%)
system.tol2bus.respLayer117.occupancy         1382934                       # Layer occupancy (ticks)
system.tol2bus.respLayer117.utilization           0.9                       # Layer utilization (%)
system.tol2bus.respLayer120.occupancy           82999                       # Layer occupancy (ticks)
system.tol2bus.respLayer120.utilization           0.1                       # Layer utilization (%)
system.tol2bus.respLayer121.occupancy         1390452                       # Layer occupancy (ticks)
system.tol2bus.respLayer121.utilization           0.9                       # Layer utilization (%)
system.tol2bus.respLayer124.occupancy           84250                       # Layer occupancy (ticks)
system.tol2bus.respLayer124.utilization           0.1                       # Layer utilization (%)
system.tol2bus.respLayer125.occupancy         1389477                       # Layer occupancy (ticks)
system.tol2bus.respLayer125.utilization           0.9                       # Layer utilization (%)

---------- End Simulation Statistics   ----------
