
---------- Begin Simulation Statistics ----------
sim_seconds                                  0.000576                       # Number of seconds simulated
sim_ticks                                   575792000                       # Number of ticks simulated
final_tick                                  575792000                       # Number of ticks from beginning of simulation (restored from checkpoints and never reset)
sim_freq                                 1000000000000                       # Frequency of simulated ticks
host_inst_rate                                1865732                       # Simulator instruction rate (inst/s)
host_op_rate                                  1880681                       # Simulator op (including micro ops) rate (op/s)
host_tick_rate                              261148045                       # Simulator tick rate (ticks/s)
host_mem_usage                                 644376                       # Number of bytes of host memory used
host_seconds                                     2.20                       # Real time elapsed on the host
sim_insts                                     4113569                       # Number of instructions simulated
sim_ops                                       4146589                       # Number of ops (including micro ops) simulated
system.voltage_domain.voltage                       1                       # Voltage in Volts
system.clk_domain.clock                          1000                       # Clock period in ticks
system.mem_ctrls.bytes_read::cpu0.inst        4488376                       # Number of bytes read from this memory
system.mem_ctrls.bytes_read::cpu0.data        1078762                       # Number of bytes read from this memory
system.mem_ctrls.bytes_read::cpu1.inst        3989348                       # Number of bytes read from this memory
system.mem_ctrls.bytes_read::cpu1.data        1066582                       # Number of bytes read from this memory
system.mem_ctrls.bytes_read::cpu2.inst        3988676                       # Number of bytes read from this memory
system.mem_ctrls.bytes_read::cpu2.data        1066502                       # Number of bytes read from this memory
system.mem_ctrls.bytes_read::cpu3.inst        3987988                       # Number of bytes read from this memory
system.mem_ctrls.bytes_read::cpu3.data        1066410                       # Number of bytes read from this memory
system.mem_ctrls.bytes_read::total           20732644                       # Number of bytes read from this memory
system.mem_ctrls.bytes_inst_read::cpu0.inst      4488376                       # Number of instructions bytes read from this memory
system.mem_ctrls.bytes_inst_read::cpu1.inst      3989348                       # Number of instructions bytes read from this memory
system.mem_ctrls.bytes_inst_read::cpu2.inst      3988676                       # Number of instructions bytes read from this memory
system.mem_ctrls.bytes_inst_read::cpu3.inst      3987988                       # Number of instructions bytes read from this memory
system.mem_ctrls.bytes_inst_read::total      16454388                       # Number of instructions bytes read from this memory
system.mem_ctrls.bytes_written::cpu0.data       190809                       # Number of bytes written to this memory
system.mem_ctrls.bytes_written::cpu1.data        12988                       # Number of bytes written to this memory
system.mem_ctrls.bytes_written::cpu2.data        12988                       # Number of bytes written to this memory
system.mem_ctrls.bytes_written::cpu3.data        13008                       # Number of bytes written to this memory
system.mem_ctrls.bytes_written::total          229793                       # Number of bytes written to this memory
system.mem_ctrls.num_reads::cpu0.inst         1122094                       # Number of read requests responded to by this memory
system.mem_ctrls.num_reads::cpu0.data          269285                       # Number of read requests responded to by this memory
system.mem_ctrls.num_reads::cpu1.inst          997337                       # Number of read requests responded to by this memory
system.mem_ctrls.num_reads::cpu1.data          266605                       # Number of read requests responded to by this memory
system.mem_ctrls.num_reads::cpu2.inst          997169                       # Number of read requests responded to by this memory
system.mem_ctrls.num_reads::cpu2.data          266586                       # Number of read requests responded to by this memory
system.mem_ctrls.num_reads::cpu3.inst          996997                       # Number of read requests responded to by this memory
system.mem_ctrls.num_reads::cpu3.data          266560                       # Number of read requests responded to by this memory
system.mem_ctrls.num_reads::total             5182633                       # Number of read requests responded to by this memory
system.mem_ctrls.num_writes::cpu0.data          47798                       # Number of write requests responded to by this memory
system.mem_ctrls.num_writes::cpu1.data           3247                       # Number of write requests responded to by this memory
system.mem_ctrls.num_writes::cpu2.data           3247                       # Number of write requests responded to by this memory
system.mem_ctrls.num_writes::cpu3.data           3252                       # Number of write requests responded to by this memory
system.mem_ctrls.num_writes::total              57544                       # Number of write requests responded to by this memory
system.mem_ctrls.bw_read::cpu0.inst        7795134354                       # Total read bandwidth from this memory (bytes/s)
system.mem_ctrls.bw_read::cpu0.data        1873527246                       # Total read bandwidth from this memory (bytes/s)
system.mem_ctrls.bw_read::cpu1.inst        6928453330                       # Total read bandwidth from this memory (bytes/s)
system.mem_ctrls.bw_read::cpu1.data        1852373774                       # Total read bandwidth from this memory (bytes/s)
system.mem_ctrls.bw_read::cpu2.inst        6927286242                       # Total read bandwidth from this memory (bytes/s)
system.mem_ctrls.bw_read::cpu2.data        1852234835                       # Total read bandwidth from this memory (bytes/s)
system.mem_ctrls.bw_read::cpu3.inst        6926091366                       # Total read bandwidth from this memory (bytes/s)
system.mem_ctrls.bw_read::cpu3.data        1852075055                       # Total read bandwidth from this memory (bytes/s)
system.mem_ctrls.bw_read::total           36007176203                       # Total read bandwidth from this memory (bytes/s)
system.mem_ctrls.bw_inst_read::cpu0.inst   7795134354                       # Instruction read bandwidth from this memory (bytes/s)
system.mem_ctrls.bw_inst_read::cpu1.inst   6928453330                       # Instruction read bandwidth from this memory (bytes/s)
system.mem_ctrls.bw_inst_read::cpu2.inst   6927286242                       # Instruction read bandwidth from this memory (bytes/s)
system.mem_ctrls.bw_inst_read::cpu3.inst   6926091366                       # Instruction read bandwidth from this memory (bytes/s)
system.mem_ctrls.bw_inst_read::total      28576965293                       # Instruction read bandwidth from this memory (bytes/s)
system.mem_ctrls.bw_write::cpu0.data        331385292                       # Write bandwidth from this memory (bytes/s)
system.mem_ctrls.bw_write::cpu1.data         22556757                       # Write bandwidth from this memory (bytes/s)
system.mem_ctrls.bw_write::cpu2.data         22556757                       # Write bandwidth from this memory (bytes/s)
system.mem_ctrls.bw_write::cpu3.data         22591491                       # Write bandwidth from this memory (bytes/s)
system.mem_ctrls.bw_write::total            399090296                       # Write bandwidth from this memory (bytes/s)
system.mem_ctrls.bw_total::cpu0.inst       7795134354                       # Total bandwidth to/from this memory (bytes/s)
system.mem_ctrls.bw_total::cpu0.data       2204912538                       # Total bandwidth to/from this memory (bytes/s)
system.mem_ctrls.bw_total::cpu1.inst       6928453330                       # Total bandwidth to/from this memory (bytes/s)
system.mem_ctrls.bw_total::cpu1.data       1874930530                       # Total bandwidth to/from this memory (bytes/s)
system.mem_ctrls.bw_total::cpu2.inst       6927286242                       # Total bandwidth to/from this memory (bytes/s)
system.mem_ctrls.bw_total::cpu2.data       1874791591                       # Total bandwidth to/from this memory (bytes/s)
system.mem_ctrls.bw_total::cpu3.inst       6926091366                       # Total bandwidth to/from this memory (bytes/s)
system.mem_ctrls.bw_total::cpu3.data       1874666546                       # Total bandwidth to/from this memory (bytes/s)
system.mem_ctrls.bw_total::total          36406266499                       # Total bandwidth to/from this memory (bytes/s)
system.mem_ctrls.readReqs                           0                       # Number of read requests accepted
system.mem_ctrls.writeReqs                          0                       # Number of write requests accepted
system.mem_ctrls.readBursts                         0                       # Number of DRAM read bursts, including those serviced by the write queue
system.mem_ctrls.writeBursts                        0                       # Number of DRAM write bursts, including those merged in the write queue
system.mem_ctrls.bytesReadDRAM                      0                       # Total number of bytes read from DRAM
system.mem_ctrls.bytesReadWrQ                       0                       # Total number of bytes read from write queue
system.mem_ctrls.bytesWritten                       0                       # Total number of bytes written to DRAM
system.mem_ctrls.bytesReadSys                       0                       # Total read bytes from the system interface side
system.mem_ctrls.bytesWrittenSys                    0                       # Total written bytes from the system interface side
system.mem_ctrls.servicedByWrQ                      0                       # Number of DRAM read bursts serviced by the write queue
system.mem_ctrls.mergedWrBursts                     0                       # Number of DRAM write bursts merged with an existing one
system.mem_ctrls.neitherReadNorWriteReqs            0                       # Number of requests that are neither read nor write
system.mem_ctrls.perBankRdBursts::0                 0                       # Per bank write bursts
system.mem_ctrls.perBankRdBursts::1                 0                       # Per bank write bursts
system.mem_ctrls.perBankRdBursts::2                 0                       # Per bank write bursts
system.mem_ctrls.perBankRdBursts::3                 0                       # Per bank write bursts
system.mem_ctrls.perBankRdBursts::4                 0                       # Per bank write bursts
system.mem_ctrls.perBankRdBursts::5                 0                       # Per bank write bursts
system.mem_ctrls.perBankRdBursts::6                 0                       # Per bank write bursts
system.mem_ctrls.perBankRdBursts::7                 0                       # Per bank write bursts
system.mem_ctrls.perBankRdBursts::8                 0                       # Per bank write bursts
system.mem_ctrls.perBankRdBursts::9                 0                       # Per bank write bursts
system.mem_ctrls.perBankRdBursts::10                0                       # Per bank write bursts
system.mem_ctrls.perBankRdBursts::11                0                       # Per bank write bursts
system.mem_ctrls.perBankRdBursts::12                0                       # Per bank write bursts
system.mem_ctrls.perBankRdBursts::13                0                       # Per bank write bursts
system.mem_ctrls.perBankRdBursts::14                0                       # Per bank write bursts
system.mem_ctrls.perBankRdBursts::15                0                       # Per bank write bursts
system.mem_ctrls.perBankWrBursts::0                 0                       # Per bank write bursts
system.mem_ctrls.perBankWrBursts::1                 0                       # Per bank write bursts
system.mem_ctrls.perBankWrBursts::2                 0                       # Per bank write bursts
system.mem_ctrls.perBankWrBursts::3                 0                       # Per bank write bursts
system.mem_ctrls.perBankWrBursts::4                 0                       # Per bank write bursts
system.mem_ctrls.perBankWrBursts::5                 0                       # Per bank write bursts
system.mem_ctrls.perBankWrBursts::6                 0                       # Per bank write bursts
system.mem_ctrls.perBankWrBursts::7                 0                       # Per bank write bursts
system.mem_ctrls.perBankWrBursts::8                 0                       # Per bank write bursts
system.mem_ctrls.perBankWrBursts::9                 0                       # Per bank write bursts
system.mem_ctrls.perBankWrBursts::10                0                       # Per bank write bursts
system.mem_ctrls.perBankWrBursts::11                0                       # Per bank write bursts
system.mem_ctrls.perBankWrBursts::12                0                       # Per bank write bursts
system.mem_ctrls.perBankWrBursts::13                0                       # Per bank write bursts
system.mem_ctrls.perBankWrBursts::14                0                       # Per bank write bursts
system.mem_ctrls.perBankWrBursts::15                0                       # Per bank write bursts
system.mem_ctrls.numRdRetry                         0                       # Number of times read queue was full causing retry
system.mem_ctrls.numWrRetry                         0                       # Number of times write queue was full causing retry
system.mem_ctrls.totGap                             0                       # Total gap between requests
system.mem_ctrls.readPktSize::0                     0                       # Read request sizes (log2)
system.mem_ctrls.readPktSize::1                     0                       # Read request sizes (log2)
system.mem_ctrls.readPktSize::2                     0                       # Read request sizes (log2)
system.mem_ctrls.readPktSize::3                     0                       # Read request sizes (log2)
system.mem_ctrls.readPktSize::4                     0                       # Read request sizes (log2)
system.mem_ctrls.readPktSize::5                     0                       # Read request sizes (log2)
system.mem_ctrls.readPktSize::6                     0                       # Read request sizes (log2)
system.mem_ctrls.writePktSize::0                    0                       # Write request sizes (log2)
system.mem_ctrls.writePktSize::1                    0                       # Write request sizes (log2)
system.mem_ctrls.writePktSize::2                    0                       # Write request sizes (log2)
system.mem_ctrls.writePktSize::3                    0                       # Write request sizes (log2)
system.mem_ctrls.writePktSize::4                    0                       # Write request sizes (log2)
system.mem_ctrls.writePktSize::5                    0                       # Write request sizes (log2)
system.mem_ctrls.writePktSize::6                    0                       # Write request sizes (log2)
system.mem_ctrls.rdQLenPdf::0                       0                       # What read queue length does an incoming req see
system.mem_ctrls.rdQLenPdf::1                       0                       # What read queue length does an incoming req see
system.mem_ctrls.rdQLenPdf::2                       0                       # What read queue length does an incoming req see
system.mem_ctrls.rdQLenPdf::3                       0                       # What read queue length does an incoming req see
system.mem_ctrls.rdQLenPdf::4                       0                       # What read queue length does an incoming req see
system.mem_ctrls.rdQLenPdf::5                       0                       # What read queue length does an incoming req see
system.mem_ctrls.rdQLenPdf::6                       0                       # What read queue length does an incoming req see
system.mem_ctrls.rdQLenPdf::7                       0                       # What read queue length does an incoming req see
system.mem_ctrls.rdQLenPdf::8                       0                       # What read queue length does an incoming req see
system.mem_ctrls.rdQLenPdf::9                       0                       # What read queue length does an incoming req see
system.mem_ctrls.rdQLenPdf::10                      0                       # What read queue length does an incoming req see
system.mem_ctrls.rdQLenPdf::11                      0                       # What read queue length does an incoming req see
system.mem_ctrls.rdQLenPdf::12                      0                       # What read queue length does an incoming req see
system.mem_ctrls.rdQLenPdf::13                      0                       # What read queue length does an incoming req see
system.mem_ctrls.rdQLenPdf::14                      0                       # What read queue length does an incoming req see
system.mem_ctrls.rdQLenPdf::15                      0                       # What read queue length does an incoming req see
system.mem_ctrls.rdQLenPdf::16                      0                       # What read queue length does an incoming req see
system.mem_ctrls.rdQLenPdf::17                      0                       # What read queue length does an incoming req see
system.mem_ctrls.rdQLenPdf::18                      0                       # What read queue length does an incoming req see
system.mem_ctrls.rdQLenPdf::19                      0                       # What read queue length does an incoming req see
system.mem_ctrls.rdQLenPdf::20                      0                       # What read queue length does an incoming req see
system.mem_ctrls.rdQLenPdf::21                      0                       # What read queue length does an incoming req see
system.mem_ctrls.rdQLenPdf::22                      0                       # What read queue length does an incoming req see
system.mem_ctrls.rdQLenPdf::23                      0                       # What read queue length does an incoming req see
system.mem_ctrls.rdQLenPdf::24                      0                       # What read queue length does an incoming req see
system.mem_ctrls.rdQLenPdf::25                      0                       # What read queue length does an incoming req see
system.mem_ctrls.rdQLenPdf::26                      0                       # What read queue length does an incoming req see
system.mem_ctrls.rdQLenPdf::27                      0                       # What read queue length does an incoming req see
system.mem_ctrls.rdQLenPdf::28                      0                       # What read queue length does an incoming req see
system.mem_ctrls.rdQLenPdf::29                      0                       # What read queue length does an incoming req see
system.mem_ctrls.rdQLenPdf::30                      0                       # What read queue length does an incoming req see
system.mem_ctrls.rdQLenPdf::31                      0                       # What read queue length does an incoming req see
system.mem_ctrls.wrQLenPdf::0                       0                       # What write queue length does an incoming req see
system.mem_ctrls.wrQLenPdf::1                       0                       # What write queue length does an incoming req see
system.mem_ctrls.wrQLenPdf::2                       0                       # What write queue length does an incoming req see
system.mem_ctrls.wrQLenPdf::3                       0                       # What write queue length does an incoming req see
system.mem_ctrls.wrQLenPdf::4                       0                       # What write queue length does an incoming req see
system.mem_ctrls.wrQLenPdf::5                       0                       # What write queue length does an incoming req see
system.mem_ctrls.wrQLenPdf::6                       0                       # What write queue length does an incoming req see
system.mem_ctrls.wrQLenPdf::7                       0                       # What write queue length does an incoming req see
system.mem_ctrls.wrQLenPdf::8                       0                       # What write queue length does an incoming req see
system.mem_ctrls.wrQLenPdf::9                       0                       # What write queue length does an incoming req see
system.mem_ctrls.wrQLenPdf::10                      0                       # What write queue length does an incoming req see
system.mem_ctrls.wrQLenPdf::11                      0                       # What write queue length does an incoming req see
system.mem_ctrls.wrQLenPdf::12                      0                       # What write queue length does an incoming req see
system.mem_ctrls.wrQLenPdf::13                      0                       # What write queue length does an incoming req see
system.mem_ctrls.wrQLenPdf::14                      0                       # What write queue length does an incoming req see
system.mem_ctrls.wrQLenPdf::15                      0                       # What write queue length does an incoming req see
system.mem_ctrls.wrQLenPdf::16                      0                       # What write queue length does an incoming req see
system.mem_ctrls.wrQLenPdf::17                      0                       # What write queue length does an incoming req see
system.mem_ctrls.wrQLenPdf::18                      0                       # What write queue length does an incoming req see
system.mem_ctrls.wrQLenPdf::19                      0                       # What write queue length does an incoming req see
system.mem_ctrls.wrQLenPdf::20                      0                       # What write queue length does an incoming req see
system.mem_ctrls.wrQLenPdf::21                      0                       # What write queue length does an incoming req see
system.mem_ctrls.wrQLenPdf::22                      0                       # What write queue length does an incoming req see
system.mem_ctrls.wrQLenPdf::23                      0                       # What write queue length does an incoming req see
system.mem_ctrls.wrQLenPdf::24                      0                       # What write queue length does an incoming req see
system.mem_ctrls.wrQLenPdf::25                      0                       # What write queue length does an incoming req see
system.mem_ctrls.wrQLenPdf::26                      0                       # What write queue length does an incoming req see
system.mem_ctrls.wrQLenPdf::27                      0                       # What write queue length does an incoming req see
system.mem_ctrls.wrQLenPdf::28                      0                       # What write queue length does an incoming req see
system.mem_ctrls.wrQLenPdf::29                      0                       # What write queue length does an incoming req see
system.mem_ctrls.wrQLenPdf::30                      0                       # What write queue length does an incoming req see
system.mem_ctrls.wrQLenPdf::31                      0                       # What write queue length does an incoming req see
system.mem_ctrls.wrQLenPdf::32                      0                       # What write queue length does an incoming req see
system.mem_ctrls.wrQLenPdf::33                      0                       # What write queue length does an incoming req see
system.mem_ctrls.wrQLenPdf::34                      0                       # What write queue length does an incoming req see
system.mem_ctrls.wrQLenPdf::35                      0                       # What write queue length does an incoming req see
system.mem_ctrls.wrQLenPdf::36                      0                       # What write queue length does an incoming req see
system.mem_ctrls.wrQLenPdf::37                      0                       # What write queue length does an incoming req see
system.mem_ctrls.wrQLenPdf::38                      0                       # What write queue length does an incoming req see
system.mem_ctrls.wrQLenPdf::39                      0                       # What write queue length does an incoming req see
system.mem_ctrls.wrQLenPdf::40                      0                       # What write queue length does an incoming req see
system.mem_ctrls.wrQLenPdf::41                      0                       # What write queue length does an incoming req see
system.mem_ctrls.wrQLenPdf::42                      0                       # What write queue length does an incoming req see
system.mem_ctrls.wrQLenPdf::43                      0                       # What write queue length does an incoming req see
system.mem_ctrls.wrQLenPdf::44                      0                       # What write queue length does an incoming req see
system.mem_ctrls.wrQLenPdf::45                      0                       # What write queue length does an incoming req see
system.mem_ctrls.wrQLenPdf::46                      0                       # What write queue length does an incoming req see
system.mem_ctrls.wrQLenPdf::47                      0                       # What write queue length does an incoming req see
system.mem_ctrls.wrQLenPdf::48                      0                       # What write queue length does an incoming req see
system.mem_ctrls.wrQLenPdf::49                      0                       # What write queue length does an incoming req see
system.mem_ctrls.wrQLenPdf::50                      0                       # What write queue length does an incoming req see
system.mem_ctrls.wrQLenPdf::51                      0                       # What write queue length does an incoming req see
system.mem_ctrls.wrQLenPdf::52                      0                       # What write queue length does an incoming req see
system.mem_ctrls.wrQLenPdf::53                      0                       # What write queue length does an incoming req see
system.mem_ctrls.wrQLenPdf::54                      0                       # What write queue length does an incoming req see
system.mem_ctrls.wrQLenPdf::55                      0                       # What write queue length does an incoming req see
system.mem_ctrls.wrQLenPdf::56                      0                       # What write queue length does an incoming req see
system.mem_ctrls.wrQLenPdf::57                      0                       # What write queue length does an incoming req see
system.mem_ctrls.wrQLenPdf::58                      0                       # What write queue length does an incoming req see
system.mem_ctrls.wrQLenPdf::59                      0                       # What write queue length does an incoming req see
system.mem_ctrls.wrQLenPdf::60                      0                       # What write queue length does an incoming req see
system.mem_ctrls.wrQLenPdf::61                      0                       # What write queue length does an incoming req see
system.mem_ctrls.wrQLenPdf::62                      0                       # What write queue length does an incoming req see
system.mem_ctrls.wrQLenPdf::63                      0                       # What write queue length does an incoming req see
system.mem_ctrls.totQLat                            0                       # Total ticks spent queuing
system.mem_ctrls.totMemAccLat                       0                       # Total ticks spent from burst creation until serviced by the DRAM
system.mem_ctrls.totBusLat                          0                       # Total ticks spent in databus transfers
system.mem_ctrls.avgQLat                          nan                       # Average queueing delay per DRAM burst
system.mem_ctrls.avgBusLat                        nan                       # Average bus latency per DRAM burst
system.mem_ctrls.avgMemAccLat                     nan                       # Average memory access latency per DRAM burst
system.mem_ctrls.avgRdBW                         0.00                       # Average DRAM read bandwidth in MiByte/s
system.mem_ctrls.avgWrBW                         0.00                       # Average achieved write bandwidth in MiByte/s
system.mem_ctrls.avgRdBWSys                      0.00                       # Average system read bandwidth in MiByte/s
system.mem_ctrls.avgWrBWSys                      0.00                       # Average system write bandwidth in MiByte/s
system.mem_ctrls.peakBW                      12800.00                       # Theoretical peak bandwidth in MiByte/s
system.mem_ctrls.busUtil                         0.00                       # Data bus utilization in percentage
system.mem_ctrls.busUtilRead                     0.00                       # Data bus utilization in percentage for reads
system.mem_ctrls.busUtilWrite                    0.00                       # Data bus utilization in percentage for writes
system.mem_ctrls.avgRdQLen                       0.00                       # Average read queue length when enqueuing
system.mem_ctrls.avgWrQLen                       0.00                       # Average write queue length when enqueuing
system.mem_ctrls.readRowHits                        0                       # Number of row buffer hits during reads
system.mem_ctrls.writeRowHits                       0                       # Number of row buffer hits during writes
system.mem_ctrls.readRowHitRate                   nan                       # Row buffer hit rate for reads
system.mem_ctrls.writeRowHitRate                  nan                       # Row buffer hit rate for writes
system.mem_ctrls.avgGap                           nan                       # Average gap between requests
system.mem_ctrls.pageHitRate                      nan                       # Row buffer hit rate, read and write combined
system.mem_ctrls_0.actEnergy                        0                       # Energy for activate commands per rank (pJ)
system.mem_ctrls_0.preEnergy                        0                       # Energy for precharge commands per rank (pJ)
system.mem_ctrls_0.readEnergy                       0                       # Energy for read commands per rank (pJ)
system.mem_ctrls_0.writeEnergy                      0                       # Energy for write commands per rank (pJ)
system.mem_ctrls_0.refreshEnergy                    0                       # Energy for refresh commands per rank (pJ)
system.mem_ctrls_0.actBackEnergy                    0                       # Energy for active background per rank (pJ)
system.mem_ctrls_0.preBackEnergy                    0                       # Energy for precharge background per rank (pJ)
system.mem_ctrls_0.totalEnergy                      0                       # Total energy per rank (pJ)
system.mem_ctrls_0.averagePower                     0                       # Core power per rank (mW)
system.mem_ctrls_0.memoryStateTime::IDLE            0                       # Time in different power states
system.mem_ctrls_0.memoryStateTime::REF             0                       # Time in different power states
system.mem_ctrls_0.memoryStateTime::PRE_PDN            0                       # Time in different power states
system.mem_ctrls_0.memoryStateTime::ACT             0                       # Time in different power states
system.mem_ctrls_0.memoryStateTime::ACT_PDN            0                       # Time in different power states
system.mem_ctrls_1.actEnergy                        0                       # Energy for activate commands per rank (pJ)
system.mem_ctrls_1.preEnergy                        0                       # Energy for precharge commands per rank (pJ)
system.mem_ctrls_1.readEnergy                       0                       # Energy for read commands per rank (pJ)
system.mem_ctrls_1.writeEnergy                      0                       # Energy for write commands per rank (pJ)
system.mem_ctrls_1.refreshEnergy                    0                       # Energy for refresh commands per rank (pJ)
system.mem_ctrls_1.actBackEnergy                    0                       # Energy for active background per rank (pJ)
system.mem_ctrls_1.preBackEnergy                    0                       # Energy for precharge background per rank (pJ)
system.mem_ctrls_1.totalEnergy                      0                       # Total energy per rank (pJ)
system.mem_ctrls_1.averagePower                     0                       # Core power per rank (mW)
system.mem_ctrls_1.memoryStateTime::IDLE            0                       # Time in different power states
system.mem_ctrls_1.memoryStateTime::REF             0                       # Time in different power states
system.mem_ctrls_1.memoryStateTime::PRE_PDN            0                       # Time in different power states
system.mem_ctrls_1.memoryStateTime::ACT             0                       # Time in different power states
system.mem_ctrls_1.memoryStateTime::ACT_PDN            0                       # Time in different power states
system.cpu_voltage_domain.voltage                   1                       # Voltage in Volts
system.cpu_clk_domain.clock                       500                       # Clock period in ticks
system.cpu0.dstage2_mmu.stage2_tlb.walker.walks            0                       # Table walker walks requested
system.cpu0.dstage2_mmu.stage2_tlb.walker.walkRequestOrigin_Requested::Data            0                       # Table walker requests started/completed, data/inst
system.cpu0.dstage2_mmu.stage2_tlb.walker.walkRequestOrigin_Requested::Inst            0                       # Table walker requests started/completed, data/inst
system.cpu0.dstage2_mmu.stage2_tlb.walker.walkRequestOrigin_Requested::total            0                       # Table walker requests started/completed, data/inst
system.cpu0.dstage2_mmu.stage2_tlb.walker.walkRequestOrigin_Completed::Data            0                       # Table walker requests started/completed, data/inst
system.cpu0.dstage2_mmu.stage2_tlb.walker.walkRequestOrigin_Completed::Inst            0                       # Table walker requests started/completed, data/inst
system.cpu0.dstage2_mmu.stage2_tlb.walker.walkRequestOrigin_Completed::total            0                       # Table walker requests started/completed, data/inst
system.cpu0.dstage2_mmu.stage2_tlb.walker.walkRequestOrigin::total            0                       # Table walker requests started/completed, data/inst
system.cpu0.dstage2_mmu.stage2_tlb.inst_hits            0                       # ITB inst hits
system.cpu0.dstage2_mmu.stage2_tlb.inst_misses            0                       # ITB inst misses
system.cpu0.dstage2_mmu.stage2_tlb.read_hits            0                       # DTB read hits
system.cpu0.dstage2_mmu.stage2_tlb.read_misses            0                       # DTB read misses
system.cpu0.dstage2_mmu.stage2_tlb.write_hits            0                       # DTB write hits
system.cpu0.dstage2_mmu.stage2_tlb.write_misses            0                       # DTB write misses
system.cpu0.dstage2_mmu.stage2_tlb.flush_tlb            0                       # Number of times complete TLB was flushed
system.cpu0.dstage2_mmu.stage2_tlb.flush_tlb_mva            0                       # Number of times TLB was flushed by MVA
system.cpu0.dstage2_mmu.stage2_tlb.flush_tlb_mva_asid            0                       # Number of times TLB was flushed by MVA & ASID
system.cpu0.dstage2_mmu.stage2_tlb.flush_tlb_asid            0                       # Number of times TLB was flushed by ASID
system.cpu0.dstage2_mmu.stage2_tlb.flush_entries            0                       # Number of entries that have been flushed from TLB
system.cpu0.dstage2_mmu.stage2_tlb.align_faults            0                       # Number of TLB faults due to alignment restrictions
system.cpu0.dstage2_mmu.stage2_tlb.prefetch_faults            0                       # Number of TLB faults due to prefetch
system.cpu0.dstage2_mmu.stage2_tlb.domain_faults            0                       # Number of TLB faults due to domain restrictions
system.cpu0.dstage2_mmu.stage2_tlb.perms_faults            0                       # Number of TLB faults due to permissions restrictions
system.cpu0.dstage2_mmu.stage2_tlb.read_accesses            0                       # DTB read accesses
system.cpu0.dstage2_mmu.stage2_tlb.write_accesses            0                       # DTB write accesses
system.cpu0.dstage2_mmu.stage2_tlb.inst_accesses            0                       # ITB inst accesses
system.cpu0.dstage2_mmu.stage2_tlb.hits             0                       # DTB hits
system.cpu0.dstage2_mmu.stage2_tlb.misses            0                       # DTB misses
system.cpu0.dstage2_mmu.stage2_tlb.accesses            0                       # DTB accesses
system.cpu0.dtb.walker.walks                        0                       # Table walker walks requested
system.cpu0.dtb.walker.walkRequestOrigin_Requested::Data            0                       # Table walker requests started/completed, data/inst
system.cpu0.dtb.walker.walkRequestOrigin_Requested::Inst            0                       # Table walker requests started/completed, data/inst
system.cpu0.dtb.walker.walkRequestOrigin_Requested::total            0                       # Table walker requests started/completed, data/inst
system.cpu0.dtb.walker.walkRequestOrigin_Completed::Data            0                       # Table walker requests started/completed, data/inst
system.cpu0.dtb.walker.walkRequestOrigin_Completed::Inst            0                       # Table walker requests started/completed, data/inst
system.cpu0.dtb.walker.walkRequestOrigin_Completed::total            0                       # Table walker requests started/completed, data/inst
system.cpu0.dtb.walker.walkRequestOrigin::total            0                       # Table walker requests started/completed, data/inst
system.cpu0.dtb.inst_hits                           0                       # ITB inst hits
system.cpu0.dtb.inst_misses                         0                       # ITB inst misses
system.cpu0.dtb.read_hits                           0                       # DTB read hits
system.cpu0.dtb.read_misses                         0                       # DTB read misses
system.cpu0.dtb.write_hits                          0                       # DTB write hits
system.cpu0.dtb.write_misses                        0                       # DTB write misses
system.cpu0.dtb.flush_tlb                           0                       # Number of times complete TLB was flushed
system.cpu0.dtb.flush_tlb_mva                       0                       # Number of times TLB was flushed by MVA
system.cpu0.dtb.flush_tlb_mva_asid                  0                       # Number of times TLB was flushed by MVA & ASID
system.cpu0.dtb.flush_tlb_asid                      0                       # Number of times TLB was flushed by ASID
system.cpu0.dtb.flush_entries                       0                       # Number of entries that have been flushed from TLB
system.cpu0.dtb.align_faults                        0                       # Number of TLB faults due to alignment restrictions
system.cpu0.dtb.prefetch_faults                     0                       # Number of TLB faults due to prefetch
system.cpu0.dtb.domain_faults                       0                       # Number of TLB faults due to domain restrictions
system.cpu0.dtb.perms_faults                        0                       # Number of TLB faults due to permissions restrictions
system.cpu0.dtb.read_accesses                       0                       # DTB read accesses
system.cpu0.dtb.write_accesses                      0                       # DTB write accesses
system.cpu0.dtb.inst_accesses                       0                       # ITB inst accesses
system.cpu0.dtb.hits                                0                       # DTB hits
system.cpu0.dtb.misses                              0                       # DTB misses
system.cpu0.dtb.accesses                            0                       # DTB accesses
system.cpu0.istage2_mmu.stage2_tlb.walker.walks            0                       # Table walker walks requested
system.cpu0.istage2_mmu.stage2_tlb.walker.walkRequestOrigin_Requested::Data            0                       # Table walker requests started/completed, data/inst
system.cpu0.istage2_mmu.stage2_tlb.walker.walkRequestOrigin_Requested::Inst            0                       # Table walker requests started/completed, data/inst
system.cpu0.istage2_mmu.stage2_tlb.walker.walkRequestOrigin_Requested::total            0                       # Table walker requests started/completed, data/inst
system.cpu0.istage2_mmu.stage2_tlb.walker.walkRequestOrigin_Completed::Data            0                       # Table walker requests started/completed, data/inst
system.cpu0.istage2_mmu.stage2_tlb.walker.walkRequestOrigin_Completed::Inst            0                       # Table walker requests started/completed, data/inst
system.cpu0.istage2_mmu.stage2_tlb.walker.walkRequestOrigin_Completed::total            0                       # Table walker requests started/completed, data/inst
system.cpu0.istage2_mmu.stage2_tlb.walker.walkRequestOrigin::total            0                       # Table walker requests started/completed, data/inst
system.cpu0.istage2_mmu.stage2_tlb.inst_hits            0                       # ITB inst hits
system.cpu0.istage2_mmu.stage2_tlb.inst_misses            0                       # ITB inst misses
system.cpu0.istage2_mmu.stage2_tlb.read_hits            0                       # DTB read hits
system.cpu0.istage2_mmu.stage2_tlb.read_misses            0                       # DTB read misses
system.cpu0.istage2_mmu.stage2_tlb.write_hits            0                       # DTB write hits
system.cpu0.istage2_mmu.stage2_tlb.write_misses            0                       # DTB write misses
system.cpu0.istage2_mmu.stage2_tlb.flush_tlb            0                       # Number of times complete TLB was flushed
system.cpu0.istage2_mmu.stage2_tlb.flush_tlb_mva            0                       # Number of times TLB was flushed by MVA
system.cpu0.istage2_mmu.stage2_tlb.flush_tlb_mva_asid            0                       # Number of times TLB was flushed by MVA & ASID
system.cpu0.istage2_mmu.stage2_tlb.flush_tlb_asid            0                       # Number of times TLB was flushed by ASID
system.cpu0.istage2_mmu.stage2_tlb.flush_entries            0                       # Number of entries that have been flushed from TLB
system.cpu0.istage2_mmu.stage2_tlb.align_faults            0                       # Number of TLB faults due to alignment restrictions
system.cpu0.istage2_mmu.stage2_tlb.prefetch_faults            0                       # Number of TLB faults due to prefetch
system.cpu0.istage2_mmu.stage2_tlb.domain_faults            0                       # Number of TLB faults due to domain restrictions
system.cpu0.istage2_mmu.stage2_tlb.perms_faults            0                       # Number of TLB faults due to permissions restrictions
system.cpu0.istage2_mmu.stage2_tlb.read_accesses            0                       # DTB read accesses
system.cpu0.istage2_mmu.stage2_tlb.write_accesses            0                       # DTB write accesses
system.cpu0.istage2_mmu.stage2_tlb.inst_accesses            0                       # ITB inst accesses
system.cpu0.istage2_mmu.stage2_tlb.hits             0                       # DTB hits
system.cpu0.istage2_mmu.stage2_tlb.misses            0                       # DTB misses
system.cpu0.istage2_mmu.stage2_tlb.accesses            0                       # DTB accesses
system.cpu0.itb.walker.walks                        0                       # Table walker walks requested
system.cpu0.itb.walker.walkRequestOrigin_Requested::Data            0                       # Table walker requests started/completed, data/inst
system.cpu0.itb.walker.walkRequestOrigin_Requested::Inst            0                       # Table walker requests started/completed, data/inst
system.cpu0.itb.walker.walkRequestOrigin_Requested::total            0                       # Table walker requests started/completed, data/inst
system.cpu0.itb.walker.walkRequestOrigin_Completed::Data            0                       # Table walker requests started/completed, data/inst
system.cpu0.itb.walker.walkRequestOrigin_Completed::Inst            0                       # Table walker requests started/completed, data/inst
system.cpu0.itb.walker.walkRequestOrigin_Completed::total            0                       # Table walker requests started/completed, data/inst
system.cpu0.itb.walker.walkRequestOrigin::total            0                       # Table walker requests started/completed, data/inst
system.cpu0.itb.inst_hits                           0                       # ITB inst hits
system.cpu0.itb.inst_misses                         0                       # ITB inst misses
system.cpu0.itb.read_hits                           0                       # DTB read hits
system.cpu0.itb.read_misses                         0                       # DTB read misses
system.cpu0.itb.write_hits                          0                       # DTB write hits
system.cpu0.itb.write_misses                        0                       # DTB write misses
system.cpu0.itb.flush_tlb                           0                       # Number of times complete TLB was flushed
system.cpu0.itb.flush_tlb_mva                       0                       # Number of times TLB was flushed by MVA
system.cpu0.itb.flush_tlb_mva_asid                  0                       # Number of times TLB was flushed by MVA & ASID
system.cpu0.itb.flush_tlb_asid                      0                       # Number of times TLB was flushed by ASID
system.cpu0.itb.flush_entries                       0                       # Number of entries that have been flushed from TLB
system.cpu0.itb.align_faults                        0                       # Number of TLB faults due to alignment restrictions
system.cpu0.itb.prefetch_faults                     0                       # Number of TLB faults due to prefetch
system.cpu0.itb.domain_faults                       0                       # Number of TLB faults due to domain restrictions
system.cpu0.itb.perms_faults                        0                       # Number of TLB faults due to permissions restrictions
system.cpu0.itb.read_accesses                       0                       # DTB read accesses
system.cpu0.itb.write_accesses                      0                       # DTB write accesses
system.cpu0.itb.inst_accesses                       0                       # ITB inst accesses
system.cpu0.itb.hits                                0                       # DTB hits
system.cpu0.itb.misses                              0                       # DTB misses
system.cpu0.itb.accesses                            0                       # DTB accesses
system.cpu0.workload.num_syscalls                  28                       # Number of system calls
system.cpu0.numCycles                         1151585                       # number of cpu cycles simulated
system.cpu0.numWorkItemsStarted                     0                       # number of work items this cpu started
system.cpu0.numWorkItemsCompleted                   0                       # number of work items this cpu completed
system.cpu0.committedInsts                    1122073                       # Number of instructions committed
system.cpu0.committedOps                      1151564                       # Number of ops (including micro ops) committed
system.cpu0.num_int_alu_accesses              1070901                       # Number of integer alu accesses
system.cpu0.num_fp_alu_accesses                    28                       # Number of float alu accesses
system.cpu0.num_func_calls                        609                       # number of times a function call or return occured
system.cpu0.num_conditional_control_insts        80449                       # number of instructions that are conditional controls
system.cpu0.num_int_insts                     1070901                       # number of integer instructions
system.cpu0.num_fp_insts                           28                       # number of float instructions
system.cpu0.num_int_register_reads            2202849                       # number of times the integer registers were read
system.cpu0.num_int_register_writes           1010834                       # number of times the integer registers were written
system.cpu0.num_fp_register_reads                  22                       # number of times the floating registers were read
system.cpu0.num_fp_register_writes                  6                       # number of times the floating registers were written
system.cpu0.num_cc_register_reads             3454757                       # number of times the CC registers were read
system.cpu0.num_cc_register_writes             467793                       # number of times the CC registers were written
system.cpu0.num_mem_refs                       317248                       # number of memory refs
system.cpu0.num_load_insts                     269352                       # Number of load instructions
system.cpu0.num_store_insts                     47896                       # Number of store instructions
system.cpu0.num_idle_cycles                  0.002000                       # Number of idle cycles
system.cpu0.num_busy_cycles              1151584.998000                       # Number of busy cycles
system.cpu0.not_idle_fraction                1.000000                       # Percentage of non-idle cycles
system.cpu0.idle_fraction                    0.000000                       # Percentage of idle cycles
system.cpu0.Branches                            81182                       # Number of branches fetched
system.cpu0.op_class::No_OpClass                    0      0.00%      0.00% # Class of executed instruction
system.cpu0.op_class::IntAlu                   629508     54.66%     54.66% # Class of executed instruction
system.cpu0.op_class::IntMult                  204826     17.79%     72.45% # Class of executed instruction
system.cpu0.op_class::IntDiv                        0      0.00%     72.45% # Class of executed instruction
system.cpu0.op_class::FloatAdd                      0      0.00%     72.45% # Class of executed instruction
system.cpu0.op_class::FloatCmp                      0      0.00%     72.45% # Class of executed instruction
system.cpu0.op_class::FloatCvt                      0      0.00%     72.45% # Class of executed instruction
system.cpu0.op_class::FloatMult                     0      0.00%     72.45% # Class of executed instruction
system.cpu0.op_class::FloatDiv                      0      0.00%     72.45% # Class of executed instruction
system.cpu0.op_class::FloatSqrt                     0      0.00%     72.45% # Class of executed instruction
system.cpu0.op_class::SimdAdd                       0      0.00%     72.45% # Class of executed instruction
system.cpu0.op_class::SimdAddAcc                    0      0.00%     72.45% # Class of executed instruction
system.cpu0.op_class::SimdAlu                       0      0.00%     72.45% # Class of executed instruction
system.cpu0.op_class::SimdCmp                       0      0.00%     72.45% # Class of executed instruction
system.cpu0.op_class::SimdCvt                       0      0.00%     72.45% # Class of executed instruction
system.cpu0.op_class::SimdMisc                      0      0.00%     72.45% # Class of executed instruction
system.cpu0.op_class::SimdMult                      0      0.00%     72.45% # Class of executed instruction
system.cpu0.op_class::SimdMultAcc                   0      0.00%     72.45% # Class of executed instruction
system.cpu0.op_class::SimdShift                     0      0.00%     72.45% # Class of executed instruction
system.cpu0.op_class::SimdShiftAcc                  0      0.00%     72.45% # Class of executed instruction
system.cpu0.op_class::SimdSqrt                      0      0.00%     72.45% # Class of executed instruction
system.cpu0.op_class::SimdFloatAdd                  0      0.00%     72.45% # Class of executed instruction
system.cpu0.op_class::SimdFloatAlu                  0      0.00%     72.45% # Class of executed instruction
system.cpu0.op_class::SimdFloatCmp                  0      0.00%     72.45% # Class of executed instruction
system.cpu0.op_class::SimdFloatCvt                  0      0.00%     72.45% # Class of executed instruction
system.cpu0.op_class::SimdFloatDiv                  0      0.00%     72.45% # Class of executed instruction
system.cpu0.op_class::SimdFloatMisc                 3      0.00%     72.45% # Class of executed instruction
system.cpu0.op_class::SimdFloatMult                 0      0.00%     72.45% # Class of executed instruction
system.cpu0.op_class::SimdFloatMultAcc              0      0.00%     72.45% # Class of executed instruction
system.cpu0.op_class::SimdFloatSqrt                 0      0.00%     72.45% # Class of executed instruction
system.cpu0.op_class::MemRead                  269352     23.39%     95.84% # Class of executed instruction
system.cpu0.op_class::MemWrite                  47896      4.16%    100.00% # Class of executed instruction
system.cpu0.op_class::IprAccess                     0      0.00%    100.00% # Class of executed instruction
system.cpu0.op_class::InstPrefetch                  0      0.00%    100.00% # Class of executed instruction
system.cpu0.op_class::total                   1151585                       # Class of executed instruction
system.cpu1.dstage2_mmu.stage2_tlb.walker.walks            0                       # Table walker walks requested
system.cpu1.dstage2_mmu.stage2_tlb.walker.walkRequestOrigin_Requested::Data            0                       # Table walker requests started/completed, data/inst
system.cpu1.dstage2_mmu.stage2_tlb.walker.walkRequestOrigin_Requested::Inst            0                       # Table walker requests started/completed, data/inst
system.cpu1.dstage2_mmu.stage2_tlb.walker.walkRequestOrigin_Requested::total            0                       # Table walker requests started/completed, data/inst
system.cpu1.dstage2_mmu.stage2_tlb.walker.walkRequestOrigin_Completed::Data            0                       # Table walker requests started/completed, data/inst
system.cpu1.dstage2_mmu.stage2_tlb.walker.walkRequestOrigin_Completed::Inst            0                       # Table walker requests started/completed, data/inst
system.cpu1.dstage2_mmu.stage2_tlb.walker.walkRequestOrigin_Completed::total            0                       # Table walker requests started/completed, data/inst
system.cpu1.dstage2_mmu.stage2_tlb.walker.walkRequestOrigin::total            0                       # Table walker requests started/completed, data/inst
system.cpu1.dstage2_mmu.stage2_tlb.inst_hits            0                       # ITB inst hits
system.cpu1.dstage2_mmu.stage2_tlb.inst_misses            0                       # ITB inst misses
system.cpu1.dstage2_mmu.stage2_tlb.read_hits            0                       # DTB read hits
system.cpu1.dstage2_mmu.stage2_tlb.read_misses            0                       # DTB read misses
system.cpu1.dstage2_mmu.stage2_tlb.write_hits            0                       # DTB write hits
system.cpu1.dstage2_mmu.stage2_tlb.write_misses            0                       # DTB write misses
system.cpu1.dstage2_mmu.stage2_tlb.flush_tlb            0                       # Number of times complete TLB was flushed
system.cpu1.dstage2_mmu.stage2_tlb.flush_tlb_mva            0                       # Number of times TLB was flushed by MVA
system.cpu1.dstage2_mmu.stage2_tlb.flush_tlb_mva_asid            0                       # Number of times TLB was flushed by MVA & ASID
system.cpu1.dstage2_mmu.stage2_tlb.flush_tlb_asid            0                       # Number of times TLB was flushed by ASID
system.cpu1.dstage2_mmu.stage2_tlb.flush_entries            0                       # Number of entries that have been flushed from TLB
system.cpu1.dstage2_mmu.stage2_tlb.align_faults            0                       # Number of TLB faults due to alignment restrictions
system.cpu1.dstage2_mmu.stage2_tlb.prefetch_faults            0                       # Number of TLB faults due to prefetch
system.cpu1.dstage2_mmu.stage2_tlb.domain_faults            0                       # Number of TLB faults due to domain restrictions
system.cpu1.dstage2_mmu.stage2_tlb.perms_faults            0                       # Number of TLB faults due to permissions restrictions
system.cpu1.dstage2_mmu.stage2_tlb.read_accesses            0                       # DTB read accesses
system.cpu1.dstage2_mmu.stage2_tlb.write_accesses            0                       # DTB write accesses
system.cpu1.dstage2_mmu.stage2_tlb.inst_accesses            0                       # ITB inst accesses
system.cpu1.dstage2_mmu.stage2_tlb.hits             0                       # DTB hits
system.cpu1.dstage2_mmu.stage2_tlb.misses            0                       # DTB misses
system.cpu1.dstage2_mmu.stage2_tlb.accesses            0                       # DTB accesses
system.cpu1.dtb.walker.walks                        0                       # Table walker walks requested
system.cpu1.dtb.walker.walkRequestOrigin_Requested::Data            0                       # Table walker requests started/completed, data/inst
system.cpu1.dtb.walker.walkRequestOrigin_Requested::Inst            0                       # Table walker requests started/completed, data/inst
system.cpu1.dtb.walker.walkRequestOrigin_Requested::total            0                       # Table walker requests started/completed, data/inst
system.cpu1.dtb.walker.walkRequestOrigin_Completed::Data            0                       # Table walker requests started/completed, data/inst
system.cpu1.dtb.walker.walkRequestOrigin_Completed::Inst            0                       # Table walker requests started/completed, data/inst
system.cpu1.dtb.walker.walkRequestOrigin_Completed::total            0                       # Table walker requests started/completed, data/inst
system.cpu1.dtb.walker.walkRequestOrigin::total            0                       # Table walker requests started/completed, data/inst
system.cpu1.dtb.inst_hits                           0                       # ITB inst hits
system.cpu1.dtb.inst_misses                         0                       # ITB inst misses
system.cpu1.dtb.read_hits                           0                       # DTB read hits
system.cpu1.dtb.read_misses                         0                       # DTB read misses
system.cpu1.dtb.write_hits                          0                       # DTB write hits
system.cpu1.dtb.write_misses                        0                       # DTB write misses
system.cpu1.dtb.flush_tlb                           0                       # Number of times complete TLB was flushed
system.cpu1.dtb.flush_tlb_mva                       0                       # Number of times TLB was flushed by MVA
system.cpu1.dtb.flush_tlb_mva_asid                  0                       # Number of times TLB was flushed by MVA & ASID
system.cpu1.dtb.flush_tlb_asid                      0                       # Number of times TLB was flushed by ASID
system.cpu1.dtb.flush_entries                       0                       # Number of entries that have been flushed from TLB
system.cpu1.dtb.align_faults                        0                       # Number of TLB faults due to alignment restrictions
system.cpu1.dtb.prefetch_faults                     0                       # Number of TLB faults due to prefetch
system.cpu1.dtb.domain_faults                       0                       # Number of TLB faults due to domain restrictions
system.cpu1.dtb.perms_faults                        0                       # Number of TLB faults due to permissions restrictions
system.cpu1.dtb.read_accesses                       0                       # DTB read accesses
system.cpu1.dtb.write_accesses                      0                       # DTB write accesses
system.cpu1.dtb.inst_accesses                       0                       # ITB inst accesses
system.cpu1.dtb.hits                                0                       # DTB hits
system.cpu1.dtb.misses                              0                       # DTB misses
system.cpu1.dtb.accesses                            0                       # DTB accesses
system.cpu1.istage2_mmu.stage2_tlb.walker.walks            0                       # Table walker walks requested
system.cpu1.istage2_mmu.stage2_tlb.walker.walkRequestOrigin_Requested::Data            0                       # Table walker requests started/completed, data/inst
system.cpu1.istage2_mmu.stage2_tlb.walker.walkRequestOrigin_Requested::Inst            0                       # Table walker requests started/completed, data/inst
system.cpu1.istage2_mmu.stage2_tlb.walker.walkRequestOrigin_Requested::total            0                       # Table walker requests started/completed, data/inst
system.cpu1.istage2_mmu.stage2_tlb.walker.walkRequestOrigin_Completed::Data            0                       # Table walker requests started/completed, data/inst
system.cpu1.istage2_mmu.stage2_tlb.walker.walkRequestOrigin_Completed::Inst            0                       # Table walker requests started/completed, data/inst
system.cpu1.istage2_mmu.stage2_tlb.walker.walkRequestOrigin_Completed::total            0                       # Table walker requests started/completed, data/inst
system.cpu1.istage2_mmu.stage2_tlb.walker.walkRequestOrigin::total            0                       # Table walker requests started/completed, data/inst
system.cpu1.istage2_mmu.stage2_tlb.inst_hits            0                       # ITB inst hits
system.cpu1.istage2_mmu.stage2_tlb.inst_misses            0                       # ITB inst misses
system.cpu1.istage2_mmu.stage2_tlb.read_hits            0                       # DTB read hits
system.cpu1.istage2_mmu.stage2_tlb.read_misses            0                       # DTB read misses
system.cpu1.istage2_mmu.stage2_tlb.write_hits            0                       # DTB write hits
system.cpu1.istage2_mmu.stage2_tlb.write_misses            0                       # DTB write misses
system.cpu1.istage2_mmu.stage2_tlb.flush_tlb            0                       # Number of times complete TLB was flushed
system.cpu1.istage2_mmu.stage2_tlb.flush_tlb_mva            0                       # Number of times TLB was flushed by MVA
system.cpu1.istage2_mmu.stage2_tlb.flush_tlb_mva_asid            0                       # Number of times TLB was flushed by MVA & ASID
system.cpu1.istage2_mmu.stage2_tlb.flush_tlb_asid            0                       # Number of times TLB was flushed by ASID
system.cpu1.istage2_mmu.stage2_tlb.flush_entries            0                       # Number of entries that have been flushed from TLB
system.cpu1.istage2_mmu.stage2_tlb.align_faults            0                       # Number of TLB faults due to alignment restrictions
system.cpu1.istage2_mmu.stage2_tlb.prefetch_faults            0                       # Number of TLB faults due to prefetch
system.cpu1.istage2_mmu.stage2_tlb.domain_faults            0                       # Number of TLB faults due to domain restrictions
system.cpu1.istage2_mmu.stage2_tlb.perms_faults            0                       # Number of TLB faults due to permissions restrictions
system.cpu1.istage2_mmu.stage2_tlb.read_accesses            0                       # DTB read accesses
system.cpu1.istage2_mmu.stage2_tlb.write_accesses            0                       # DTB write accesses
system.cpu1.istage2_mmu.stage2_tlb.inst_accesses            0                       # ITB inst accesses
system.cpu1.istage2_mmu.stage2_tlb.hits             0                       # DTB hits
system.cpu1.istage2_mmu.stage2_tlb.misses            0                       # DTB misses
system.cpu1.istage2_mmu.stage2_tlb.accesses            0                       # DTB accesses
system.cpu1.itb.walker.walks                        0                       # Table walker walks requested
system.cpu1.itb.walker.walkRequestOrigin_Requested::Data            0                       # Table walker requests started/completed, data/inst
system.cpu1.itb.walker.walkRequestOrigin_Requested::Inst            0                       # Table walker requests started/completed, data/inst
system.cpu1.itb.walker.walkRequestOrigin_Requested::total            0                       # Table walker requests started/completed, data/inst
system.cpu1.itb.walker.walkRequestOrigin_Completed::Data            0                       # Table walker requests started/completed, data/inst
system.cpu1.itb.walker.walkRequestOrigin_Completed::Inst            0                       # Table walker requests started/completed, data/inst
system.cpu1.itb.walker.walkRequestOrigin_Completed::total            0                       # Table walker requests started/completed, data/inst
system.cpu1.itb.walker.walkRequestOrigin::total            0                       # Table walker requests started/completed, data/inst
system.cpu1.itb.inst_hits                           0                       # ITB inst hits
system.cpu1.itb.inst_misses                         0                       # ITB inst misses
system.cpu1.itb.read_hits                           0                       # DTB read hits
system.cpu1.itb.read_misses                         0                       # DTB read misses
system.cpu1.itb.write_hits                          0                       # DTB write hits
system.cpu1.itb.write_misses                        0                       # DTB write misses
system.cpu1.itb.flush_tlb                           0                       # Number of times complete TLB was flushed
system.cpu1.itb.flush_tlb_mva                       0                       # Number of times TLB was flushed by MVA
system.cpu1.itb.flush_tlb_mva_asid                  0                       # Number of times TLB was flushed by MVA & ASID
system.cpu1.itb.flush_tlb_asid                      0                       # Number of times TLB was flushed by ASID
system.cpu1.itb.flush_entries                       0                       # Number of entries that have been flushed from TLB
system.cpu1.itb.align_faults                        0                       # Number of TLB faults due to alignment restrictions
system.cpu1.itb.prefetch_faults                     0                       # Number of TLB faults due to prefetch
system.cpu1.itb.domain_faults                       0                       # Number of TLB faults due to domain restrictions
system.cpu1.itb.perms_faults                        0                       # Number of TLB faults due to permissions restrictions
system.cpu1.itb.read_accesses                       0                       # DTB read accesses
system.cpu1.itb.write_accesses                      0                       # DTB write accesses
system.cpu1.itb.inst_accesses                       0                       # ITB inst accesses
system.cpu1.itb.hits                                0                       # DTB hits
system.cpu1.itb.misses                              0                       # DTB misses
system.cpu1.itb.accesses                            0                       # DTB accesses
system.cpu1.numCycles                         1151584                       # number of cpu cycles simulated
system.cpu1.numWorkItemsStarted                     0                       # number of work items this cpu started
system.cpu1.numWorkItemsCompleted                   0                       # number of work items this cpu completed
system.cpu1.committedInsts                     997335                       # Number of instructions committed
system.cpu1.committedOps                       998510                       # Number of ops (including micro ops) committed
system.cpu1.num_int_alu_accesses               931545                       # Number of integer alu accesses
system.cpu1.num_fp_alu_accesses                     0                       # Number of float alu accesses
system.cpu1.num_func_calls                         37                       # number of times a function call or return occured
system.cpu1.num_conditional_control_insts        66948                       # number of instructions that are conditional controls
system.cpu1.num_int_insts                      931545                       # number of integer instructions
system.cpu1.num_fp_insts                            0                       # number of float instructions
system.cpu1.num_int_register_reads            1929537                       # number of times the integer registers were read
system.cpu1.num_int_register_writes            926720                       # number of times the integer registers were written
system.cpu1.num_fp_register_reads                   0                       # number of times the floating registers were read
system.cpu1.num_fp_register_writes                  0                       # number of times the floating registers were written
system.cpu1.num_cc_register_reads             2995536                       # number of times the CC registers were read
system.cpu1.num_cc_register_writes             398449                       # number of times the CC registers were written
system.cpu1.num_mem_refs                       269857                       # number of memory refs
system.cpu1.num_load_insts                     266607                       # Number of load instructions
system.cpu1.num_store_insts                      3250                       # Number of store instructions
system.cpu1.num_idle_cycles              153072.001734                       # Number of idle cycles
system.cpu1.num_busy_cycles              998511.998266                       # Number of busy cycles
system.cpu1.not_idle_fraction                0.867077                       # Percentage of non-idle cycles
system.cpu1.idle_fraction                    0.132923                       # Percentage of idle cycles
system.cpu1.Branches                            66993                       # Number of branches fetched
system.cpu1.op_class::No_OpClass                    0      0.00%      0.00% # Class of executed instruction
system.cpu1.op_class::IntAlu                   532044     53.28%     53.28% # Class of executed instruction
system.cpu1.op_class::IntMult                  196611     19.69%     72.97% # Class of executed instruction
system.cpu1.op_class::IntDiv                        0      0.00%     72.97% # Class of executed instruction
system.cpu1.op_class::FloatAdd                      0      0.00%     72.97% # Class of executed instruction
system.cpu1.op_class::FloatCmp                      0      0.00%     72.97% # Class of executed instruction
system.cpu1.op_class::FloatCvt                      0      0.00%     72.97% # Class of executed instruction
system.cpu1.op_class::FloatMult                     0      0.00%     72.97% # Class of executed instruction
system.cpu1.op_class::FloatDiv                      0      0.00%     72.97% # Class of executed instruction
system.cpu1.op_class::FloatSqrt                     0      0.00%     72.97% # Class of executed instruction
system.cpu1.op_class::SimdAdd                       0      0.00%     72.97% # Class of executed instruction
system.cpu1.op_class::SimdAddAcc                    0      0.00%     72.97% # Class of executed instruction
system.cpu1.op_class::SimdAlu                       0      0.00%     72.97% # Class of executed instruction
system.cpu1.op_class::SimdCmp                       0      0.00%     72.97% # Class of executed instruction
system.cpu1.op_class::SimdCvt                       0      0.00%     72.97% # Class of executed instruction
system.cpu1.op_class::SimdMisc                      0      0.00%     72.97% # Class of executed instruction
system.cpu1.op_class::SimdMult                      0      0.00%     72.97% # Class of executed instruction
system.cpu1.op_class::SimdMultAcc                   0      0.00%     72.97% # Class of executed instruction
system.cpu1.op_class::SimdShift                     0      0.00%     72.97% # Class of executed instruction
system.cpu1.op_class::SimdShiftAcc                  0      0.00%     72.97% # Class of executed instruction
system.cpu1.op_class::SimdSqrt                      0      0.00%     72.97% # Class of executed instruction
system.cpu1.op_class::SimdFloatAdd                  0      0.00%     72.97% # Class of executed instruction
system.cpu1.op_class::SimdFloatAlu                  0      0.00%     72.97% # Class of executed instruction
system.cpu1.op_class::SimdFloatCmp                  0      0.00%     72.97% # Class of executed instruction
system.cpu1.op_class::SimdFloatCvt                  0      0.00%     72.97% # Class of executed instruction
system.cpu1.op_class::SimdFloatDiv                  0      0.00%     72.97% # Class of executed instruction
system.cpu1.op_class::SimdFloatMisc                 0      0.00%     72.97% # Class of executed instruction
system.cpu1.op_class::SimdFloatMult                 0      0.00%     72.97% # Class of executed instruction
system.cpu1.op_class::SimdFloatMultAcc              0      0.00%     72.97% # Class of executed instruction
system.cpu1.op_class::SimdFloatSqrt                 0      0.00%     72.97% # Class of executed instruction
system.cpu1.op_class::MemRead                  266607     26.70%     99.67% # Class of executed instruction
system.cpu1.op_class::MemWrite                   3250      0.33%    100.00% # Class of executed instruction
system.cpu1.op_class::IprAccess                     0      0.00%    100.00% # Class of executed instruction
system.cpu1.op_class::InstPrefetch                  0      0.00%    100.00% # Class of executed instruction
system.cpu1.op_class::total                    998512                       # Class of executed instruction
system.cpu2.dstage2_mmu.stage2_tlb.walker.walks            0                       # Table walker walks requested
system.cpu2.dstage2_mmu.stage2_tlb.walker.walkRequestOrigin_Requested::Data            0                       # Table walker requests started/completed, data/inst
system.cpu2.dstage2_mmu.stage2_tlb.walker.walkRequestOrigin_Requested::Inst            0                       # Table walker requests started/completed, data/inst
system.cpu2.dstage2_mmu.stage2_tlb.walker.walkRequestOrigin_Requested::total            0                       # Table walker requests started/completed, data/inst
system.cpu2.dstage2_mmu.stage2_tlb.walker.walkRequestOrigin_Completed::Data            0                       # Table walker requests started/completed, data/inst
system.cpu2.dstage2_mmu.stage2_tlb.walker.walkRequestOrigin_Completed::Inst            0                       # Table walker requests started/completed, data/inst
system.cpu2.dstage2_mmu.stage2_tlb.walker.walkRequestOrigin_Completed::total            0                       # Table walker requests started/completed, data/inst
system.cpu2.dstage2_mmu.stage2_tlb.walker.walkRequestOrigin::total            0                       # Table walker requests started/completed, data/inst
system.cpu2.dstage2_mmu.stage2_tlb.inst_hits            0                       # ITB inst hits
system.cpu2.dstage2_mmu.stage2_tlb.inst_misses            0                       # ITB inst misses
system.cpu2.dstage2_mmu.stage2_tlb.read_hits            0                       # DTB read hits
system.cpu2.dstage2_mmu.stage2_tlb.read_misses            0                       # DTB read misses
system.cpu2.dstage2_mmu.stage2_tlb.write_hits            0                       # DTB write hits
system.cpu2.dstage2_mmu.stage2_tlb.write_misses            0                       # DTB write misses
system.cpu2.dstage2_mmu.stage2_tlb.flush_tlb            0                       # Number of times complete TLB was flushed
system.cpu2.dstage2_mmu.stage2_tlb.flush_tlb_mva            0                       # Number of times TLB was flushed by MVA
system.cpu2.dstage2_mmu.stage2_tlb.flush_tlb_mva_asid            0                       # Number of times TLB was flushed by MVA & ASID
system.cpu2.dstage2_mmu.stage2_tlb.flush_tlb_asid            0                       # Number of times TLB was flushed by ASID
system.cpu2.dstage2_mmu.stage2_tlb.flush_entries            0                       # Number of entries that have been flushed from TLB
system.cpu2.dstage2_mmu.stage2_tlb.align_faults            0                       # Number of TLB faults due to alignment restrictions
system.cpu2.dstage2_mmu.stage2_tlb.prefetch_faults            0                       # Number of TLB faults due to prefetch
system.cpu2.dstage2_mmu.stage2_tlb.domain_faults            0                       # Number of TLB faults due to domain restrictions
system.cpu2.dstage2_mmu.stage2_tlb.perms_faults            0                       # Number of TLB faults due to permissions restrictions
system.cpu2.dstage2_mmu.stage2_tlb.read_accesses            0                       # DTB read accesses
system.cpu2.dstage2_mmu.stage2_tlb.write_accesses            0                       # DTB write accesses
system.cpu2.dstage2_mmu.stage2_tlb.inst_accesses            0                       # ITB inst accesses
system.cpu2.dstage2_mmu.stage2_tlb.hits             0                       # DTB hits
system.cpu2.dstage2_mmu.stage2_tlb.misses            0                       # DTB misses
system.cpu2.dstage2_mmu.stage2_tlb.accesses            0                       # DTB accesses
system.cpu2.dtb.walker.walks                        0                       # Table walker walks requested
system.cpu2.dtb.walker.walkRequestOrigin_Requested::Data            0                       # Table walker requests started/completed, data/inst
system.cpu2.dtb.walker.walkRequestOrigin_Requested::Inst            0                       # Table walker requests started/completed, data/inst
system.cpu2.dtb.walker.walkRequestOrigin_Requested::total            0                       # Table walker requests started/completed, data/inst
system.cpu2.dtb.walker.walkRequestOrigin_Completed::Data            0                       # Table walker requests started/completed, data/inst
system.cpu2.dtb.walker.walkRequestOrigin_Completed::Inst            0                       # Table walker requests started/completed, data/inst
system.cpu2.dtb.walker.walkRequestOrigin_Completed::total            0                       # Table walker requests started/completed, data/inst
system.cpu2.dtb.walker.walkRequestOrigin::total            0                       # Table walker requests started/completed, data/inst
system.cpu2.dtb.inst_hits                           0                       # ITB inst hits
system.cpu2.dtb.inst_misses                         0                       # ITB inst misses
[...]
system.cpu3.dtb.align_faults                        0                       # Number of TLB faults due to alignment restrictions
system.cpu3.dtb.prefetch_faults                     0                       # Number of TLB faults due to prefetch
system.cpu3.dtb.domain_faults                       0                       # Number of TLB faults due to domain restrictions
system.cpu3.dtb.perms_faults                        0                       # Number of TLB faults due to permissions restrictions
system.cpu3.dtb.read_accesses                       0                       # DTB read accesses
system.cpu3.dtb.write_accesses                      0                       # DTB write accesses
system.cpu3.dtb.inst_accesses                       0                       # ITB inst accesses
system.cpu3.dtb.hits                                0                       # DTB hits
system.cpu3.dtb.misses                              0                       # DTB misses
system.cpu3.dtb.accesses                            0                       # DTB accesses
system.cpu3.istage2_mmu.stage2_tlb.walker.walks            0                       # Table walker walks requested
system.cpu3.istage2_mmu.stage2_tlb.walker.walkRequestOrigin_Requested::Data            0                       # Table walker requests started/completed, data/inst
system.cpu3.istage2_mmu.stage2_tlb.walker.walkRequestOrigin_Requested::Inst            0                       # Table walker requests started/completed, data/inst
system.cpu3.istage2_mmu.stage2_tlb.walker.walkRequestOrigin_Requested::total            0                       # Table walker requests started/completed, data/inst
system.cpu3.istage2_mmu.stage2_tlb.walker.walkRequestOrigin_Completed::Data            0                       # Table walker requests started/completed, data/inst
system.cpu3.istage2_mmu.stage2_tlb.walker.walkRequestOrigin_Completed::Inst            0                       # Table walker requests started/completed, data/inst
system.cpu3.istage2_mmu.stage2_tlb.walker.walkRequestOrigin_Completed::total            0                       # Table walker requests started/completed, data/inst
system.cpu3.istage2_mmu.stage2_tlb.walker.walkRequestOrigin::total            0                       # Table walker requests started/completed, data/inst
system.cpu3.istage2_mmu.stage2_tlb.inst_hits            0                       # ITB inst hits
system.cpu3.istage2_mmu.stage2_tlb.inst_misses            0                       # ITB inst misses
system.cpu3.istage2_mmu.stage2_tlb.read_hits            0                       # DTB read hits
system.cpu3.istage2_mmu.stage2_tlb.read_misses            0                       # DTB read misses
system.cpu3.istage2_mmu.stage2_tlb.write_hits            0                       # DTB write hits
system.cpu3.istage2_mmu.stage2_tlb.write_misses            0                       # DTB write misses
system.cpu3.istage2_mmu.stage2_tlb.flush_tlb            0                       # Number of times complete TLB was flushed
system.cpu3.istage2_mmu.stage2_tlb.flush_tlb_mva            0                       # Number of times TLB was flushed by MVA
system.cpu3.istage2_mmu.stage2_tlb.flush_tlb_mva_asid            0                       # Number of times TLB was flushed by MVA & ASID
system.cpu3.istage2_mmu.stage2_tlb.flush_tlb_asid            0                       # Number of times TLB was flushed by ASID
system.cpu3.istage2_mmu.stage2_tlb.flush_entries            0                       # Number of entries that have been flushed from TLB
system.cpu3.istage2_mmu.stage2_tlb.align_faults            0                       # Number of TLB faults due to alignment restrictions
system.cpu3.istage2_mmu.stage2_tlb.prefetch_faults            0                       # Number of TLB faults due to prefetch
system.cpu3.istage2_mmu.stage2_tlb.domain_faults            0                       # Number of TLB faults due to domain restrictions
system.cpu3.istage2_mmu.stage2_tlb.perms_faults            0                       # Number of TLB faults due to permissions restrictions
system.cpu3.istage2_mmu.stage2_tlb.read_accesses            0                       # DTB read accesses
system.cpu3.istage2_mmu.stage2_tlb.write_accesses            0                       # DTB write accesses
system.cpu3.istage2_mmu.stage2_tlb.inst_accesses            0                       # ITB inst accesses
system.cpu3.istage2_mmu.stage2_tlb.hits             0                       # DTB hits
system.cpu3.istage2_mmu.stage2_tlb.misses            0                       # DTB misses
system.cpu3.istage2_mmu.stage2_tlb.accesses            0                       # DTB accesses
system.cpu3.itb.walker.walks                        0                       # Table walker walks requested
system.cpu3.itb.walker.walkRequestOrigin_Requested::Data            0                       # Table walker requests started/completed, data/inst
system.cpu3.itb.walker.walkRequestOrigin_Requested::Inst            0                       # Table walker requests started/completed, data/inst
system.cpu3.itb.walker.walkRequestOrigin_Requested::total            0                       # Table walker requests started/completed, data/inst
system.cpu3.itb.walker.walkRequestOrigin_Completed::Data            0                       # Table walker requests started/completed, data/inst
system.cpu3.itb.walker.walkRequestOrigin_Completed::Inst            0                       # Table walker requests started/completed, data/inst
system.cpu3.itb.walker.walkRequestOrigin_Completed::total            0                       # Table walker requests started/completed, data/inst
system.cpu3.itb.walker.walkRequestOrigin::total            0                       # Table walker requests started/completed, data/inst
system.cpu3.itb.inst_hits                           0                       # ITB inst hits
system.cpu3.itb.inst_misses                         0                       # ITB inst misses
system.cpu3.itb.read_hits                           0                       # DTB read hits
system.cpu3.itb.read_misses                         0                       # DTB read misses
system.cpu3.itb.write_hits                          0                       # DTB write hits
system.cpu3.itb.write_misses                        0                       # DTB write misses
system.cpu3.itb.flush_tlb                           0                       # Number of times complete TLB was flushed
system.cpu3.itb.flush_tlb_mva                       0                       # Number of times TLB was flushed by MVA
system.cpu3.itb.flush_tlb_mva_asid                  0                       # Number of times TLB was flushed by MVA & ASID
system.cpu3.itb.flush_tlb_asid                      0                       # Number of times TLB was flushed by ASID
system.cpu3.itb.flush_entries                       0                       # Number of entries that have been flushed from TLB
system.cpu3.itb.align_faults                        0                       # Number of TLB faults due to alignment restrictions
system.cpu3.itb.prefetch_faults                     0                       # Number of TLB faults due to prefetch
system.cpu3.itb.domain_faults                       0                       # Number of TLB faults due to domain restrictions
system.cpu3.itb.perms_faults                        0                       # Number of TLB faults due to permissions restrictions
system.cpu3.itb.read_accesses                       0                       # DTB read accesses
system.cpu3.itb.write_accesses                      0                       # DTB write accesses
system.cpu3.itb.inst_accesses                       0                       # ITB inst accesses
system.cpu3.itb.hits                                0                       # DTB hits
system.cpu3.itb.misses                              0                       # DTB misses
system.cpu3.itb.accesses                            0                       # DTB accesses
system.cpu3.numCycles                         1151584                       # number of cpu cycles simulated
system.cpu3.numWorkItemsStarted                     0                       # number of work items this cpu started
system.cpu3.numWorkItemsCompleted                   0                       # number of work items this cpu completed
system.cpu3.committedInsts                     996994                       # Number of instructions committed
system.cpu3.committedOps                       998173                       # Number of ops (including micro ops) committed
system.cpu3.num_int_alu_accesses               931297                       # Number of integer alu accesses
system.cpu3.num_fp_alu_accesses                     0                       # Number of float alu accesses
system.cpu3.num_func_calls                         37                       # number of times a function call or return occured
system.cpu3.num_conditional_control_insts        66861                       # number of instructions that are conditional controls
system.cpu3.num_int_insts                      931297                       # number of integer instructions
system.cpu3.num_fp_insts                            0                       # number of float instructions
system.cpu3.num_int_register_reads            1929043                       # number of times the integer registers were read
system.cpu3.num_int_register_writes            926600                       # number of times the integer registers were written
system.cpu3.num_fp_register_reads                   0                       # number of times the floating registers were read
system.cpu3.num_fp_register_writes                  0                       # number of times the floating registers were written
system.cpu3.num_cc_register_reads             2994528                       # number of times the CC registers were read
system.cpu3.num_cc_register_writes             397927                       # number of times the CC registers were written
system.cpu3.num_mem_refs                       269817                       # number of memory refs
system.cpu3.num_load_insts                     266562                       # Number of load instructions
system.cpu3.num_store_insts                      3255                       # Number of store instructions
system.cpu3.num_idle_cycles              153408.001734                       # Number of idle cycles
system.cpu3.num_busy_cycles              998175.998266                       # Number of busy cycles
system.cpu3.not_idle_fraction                0.866785                       # Percentage of non-idle cycles
system.cpu3.idle_fraction                    0.133215                       # Percentage of idle cycles
system.cpu3.Branches                            66904                       # Number of branches fetched
system.cpu3.op_class::No_OpClass                    0      0.00%      0.00% # Class of executed instruction
system.cpu3.op_class::IntAlu                   531748     53.27%     53.27% # Class of executed instruction
system.cpu3.op_class::IntMult                  196611     19.70%     72.97% # Class of executed instruction
system.cpu3.op_class::IntDiv                        0      0.00%     72.97% # Class of executed instruction
system.cpu3.op_class::FloatAdd                      0      0.00%     72.97% # Class of executed instruction
system.cpu3.op_class::FloatCmp                      0      0.00%     72.97% # Class of executed instruction
system.cpu3.op_class::FloatCvt                      0      0.00%     72.97% # Class of executed instruction
system.cpu3.op_class::FloatMult                     0      0.00%     72.97% # Class of executed instruction
system.cpu3.op_class::FloatDiv                      0      0.00%     72.97% # Class of executed instruction
system.cpu3.op_class::FloatSqrt                     0      0.00%     72.97% # Class of executed instruction
system.cpu3.op_class::SimdAdd                       0      0.00%     72.97% # Class of executed instruction
system.cpu3.op_class::SimdAddAcc                    0      0.00%     72.97% # Class of executed instruction
system.cpu3.op_class::SimdAlu                       0      0.00%     72.97% # Class of executed instruction
system.cpu3.op_class::SimdCmp                       0      0.00%     72.97% # Class of executed instruction
system.cpu3.op_class::SimdCvt                       0      0.00%     72.97% # Class of executed instruction
system.cpu3.op_class::SimdMisc                      0      0.00%     72.97% # Class of executed instruction
system.cpu3.op_class::SimdMult                      0      0.00%     72.97% # Class of executed instruction
system.cpu3.op_class::SimdMultAcc                   0      0.00%     72.97% # Class of executed instruction
system.cpu3.op_class::SimdShift                     0      0.00%     72.97% # Class of executed instruction
system.cpu3.op_class::SimdShiftAcc                  0      0.00%     72.97% # Class of executed instruction
system.cpu3.op_class::SimdSqrt                      0      0.00%     72.97% # Class of executed instruction
system.cpu3.op_class::SimdFloatAdd                  0      0.00%     72.97% # Class of executed instruction
system.cpu3.op_class::SimdFloatAlu                  0      0.00%     72.97% # Class of executed instruction
system.cpu3.op_class::SimdFloatCmp                  0      0.00%     72.97% # Class of executed instruction
system.cpu3.op_class::SimdFloatCvt                  0      0.00%     72.97% # Class of executed instruction
system.cpu3.op_class::SimdFloatDiv                  0      0.00%     72.97% # Class of executed instruction
system.cpu3.op_class::SimdFloatMisc                 0      0.00%     72.97% # Class of executed instruction
system.cpu3.op_class::SimdFloatMult                 0      0.00%     72.97% # Class of executed instruction
system.cpu3.op_class::SimdFloatMultAcc              0      0.00%     72.97% # Class of executed instruction
system.cpu3.op_class::SimdFloatSqrt                 0      0.00%     72.97% # Class of executed instruction
system.cpu3.op_class::MemRead                  266562     26.70%     99.67% # Class of executed instruction
system.cpu3.op_class::MemWrite                   3255      0.33%    100.00% # Class of executed instruction
system.cpu3.op_class::IprAccess                     0      0.00%    100.00% # Class of executed instruction
system.cpu3.op_class::InstPrefetch                  0      0.00%    100.00% # Class of executed instruction
system.cpu3.op_class::total                    998176                       # Class of executed instruction
system.membus.trans_dist::ReadReq             5182565                       # Transaction distribution
system.membus.trans_dist::ReadResp            5182629                       # Transaction distribution
system.membus.trans_dist::WriteReq              57481                       # Transaction distribution
system.membus.trans_dist::WriteResp             57481                       # Transaction distribution
system.membus.trans_dist::SoftPFReq                 4                       # Transaction distribution
system.membus.trans_dist::SoftPFResp                4                       # Transaction distribution
system.membus.trans_dist::LoadLockedReq            64                       # Transaction distribution
system.membus.trans_dist::StoreCondReq             64                       # Transaction distribution
system.membus.trans_dist::StoreCondResp            64                       # Transaction distribution
system.membus.pkt_count_system.cpu0.icache_port::system.mem_ctrls.port      2244188                       # Packet count per connected master and slave (bytes)
system.membus.pkt_count_system.cpu0.dcache_port::system.mem_ctrls.port       634166                       # Packet count per connected master and slave (bytes)
system.membus.pkt_count_system.cpu1.icache_port::system.mem_ctrls.port      1994674                       # Packet count per connected master and slave (bytes)
system.membus.pkt_count_system.cpu1.dcache_port::system.mem_ctrls.port       539704                       # Packet count per connected master and slave (bytes)
system.membus.pkt_count_system.cpu2.icache_port::system.mem_ctrls.port      1994338                       # Packet count per connected master and slave (bytes)
system.membus.pkt_count_system.cpu2.dcache_port::system.mem_ctrls.port       539668                       # Packet count per connected master and slave (bytes)
system.membus.pkt_count_system.cpu3.icache_port::system.mem_ctrls.port      1993994                       # Packet count per connected master and slave (bytes)
system.membus.pkt_count_system.cpu3.dcache_port::system.mem_ctrls.port       539624                       # Packet count per connected master and slave (bytes)
system.membus.pkt_count::total               10480356                       # Packet count per connected master and slave (bytes)
system.membus.pkt_size_system.cpu0.icache_port::system.mem_ctrls.port      4488376                       # Cumulative packet size per connected master and slave (bytes)
system.membus.pkt_size_system.cpu0.dcache_port::system.mem_ctrls.port      1269571                       # Cumulative packet size per connected master and slave (bytes)
system.membus.pkt_size_system.cpu1.icache_port::system.mem_ctrls.port      3989348                       # Cumulative packet size per connected master and slave (bytes)
system.membus.pkt_size_system.cpu1.dcache_port::system.mem_ctrls.port      1079570                       # Cumulative packet size per connected master and slave (bytes)
system.membus.pkt_size_system.cpu2.icache_port::system.mem_ctrls.port      3988676                       # Cumulative packet size per connected master and slave (bytes)
system.membus.pkt_size_system.cpu2.dcache_port::system.mem_ctrls.port      1079494                       # Cumulative packet size per connected master and slave (bytes)
system.membus.pkt_size_system.cpu3.icache_port::system.mem_ctrls.port      3987988                       # Cumulative packet size per connected master and slave (bytes)
system.membus.pkt_size_system.cpu3.dcache_port::system.mem_ctrls.port      1079418                       # Cumulative packet size per connected master and slave (bytes)
system.membus.pkt_size::total                20962441                       # Cumulative packet size per connected master and slave (bytes)
system.membus.snoops                                0                       # Total snoops (count)
system.membus.snoop_fanout::samples           5240178                       # Request fanout histogram
system.membus.snoop_fanout::mean             3.785011                       # Request fanout histogram
system.membus.snoop_fanout::stdev            0.410815                       # Request fanout histogram
system.membus.snoop_fanout::underflows              0      0.00%      0.00% # Request fanout histogram
system.membus.snoop_fanout::0                       0      0.00%      0.00% # Request fanout histogram
system.membus.snoop_fanout::1                       0      0.00%      0.00% # Request fanout histogram
system.membus.snoop_fanout::2                       0      0.00%      0.00% # Request fanout histogram
system.membus.snoop_fanout::3                 1126581     21.50%     21.50% # Request fanout histogram
system.membus.snoop_fanout::4                 4113597     78.50%    100.00% # Request fanout histogram
system.membus.snoop_fanout::overflows               0      0.00%    100.00% # Request fanout histogram
system.membus.snoop_fanout::min_value               3                       # Request fanout histogram
system.membus.snoop_fanout::max_value               4                       # Request fanout histogram
system.membus.snoop_fanout::total             5240178                       # Request fanout histogram

---------- End Simulation Statistics   ----------
