
---------- Begin Simulation Statistics ----------
sim_seconds                                  0.000188                       # Number of seconds simulated
sim_ticks                                   188197500                       # Number of ticks simulated
final_tick                                  188197500                       # Number of ticks from beginning of simulation (restored from checkpoints and never reset)
sim_freq                                 1000000000000                       # Frequency of simulated ticks
host_inst_rate                                 266328                       # Simulator instruction rate (inst/s)
host_op_rate                                   268402                       # Simulator op (including micro ops) rate (op/s)
host_tick_rate                               11297814                       # Simulator tick rate (ticks/s)
host_mem_usage                                 686116                       # Number of bytes of host memory used
host_seconds                                    16.66                       # Real time elapsed on the host
sim_insts                                     4436443                       # Number of instructions simulated
sim_ops                                       4471003                       # Number of ops (including micro ops) simulated
system.voltage_domain.voltage                       1                       # Voltage in Volts
system.clk_domain.clock                          1000                       # Clock period in ticks
system.mem_ctrls.bytes_read::cpu0.inst          35200                       # Number of bytes read from this memory
system.mem_ctrls.bytes_read::cpu0.data         116032                       # Number of bytes read from this memory
system.mem_ctrls.bytes_read::cpu1.inst            832                       # Number of bytes read from this memory
system.mem_ctrls.bytes_read::cpu1.data            256                       # Number of bytes read from this memory
system.mem_ctrls.bytes_read::cpu2.inst            768                       # Number of bytes read from this memory
system.mem_ctrls.bytes_read::cpu2.data            320                       # Number of bytes read from this memory
system.mem_ctrls.bytes_read::cpu3.inst            192                       # Number of bytes read from this memory
system.mem_ctrls.bytes_read::cpu3.data            256                       # Number of bytes read from this memory
system.mem_ctrls.bytes_read::cpu4.data            320                       # Number of bytes read from this memory
system.mem_ctrls.bytes_read::cpu5.inst            128                       # Number of bytes read from this memory
system.mem_ctrls.bytes_read::cpu5.data            320                       # Number of bytes read from this memory
system.mem_ctrls.bytes_read::cpu6.inst            128                       # Number of bytes read from this memory
system.mem_ctrls.bytes_read::cpu6.data            256                       # Number of bytes read from this memory
system.mem_ctrls.bytes_read::cpu7.inst             64                       # Number of bytes read from this memory
system.mem_ctrls.bytes_read::cpu7.data            256                       # Number of bytes read from this memory
system.mem_ctrls.bytes_read::total             155328                       # Number of bytes read from this memory
system.mem_ctrls.bytes_inst_read::cpu0.inst        35200                       # Number of instructions bytes read from this memory
system.mem_ctrls.bytes_inst_read::cpu1.inst          832                       # Number of instructions bytes read from this memory
system.mem_ctrls.bytes_inst_read::cpu2.inst          768                       # Number of instructions bytes read from this memory
system.mem_ctrls.bytes_inst_read::cpu3.inst          192                       # Number of instructions bytes read from this memory
system.mem_ctrls.bytes_inst_read::cpu5.inst          128                       # Number of instructions bytes read from this memory
system.mem_ctrls.bytes_inst_read::cpu6.inst          128                       # Number of instructions bytes read from this memory
system.mem_ctrls.bytes_inst_read::cpu7.inst           64                       # Number of instructions bytes read from this memory
system.mem_ctrls.bytes_inst_read::total         37312                       # Number of instructions bytes read from this memory
system.mem_ctrls.num_reads::cpu0.inst             550                       # Number of read requests responded to by this memory
system.mem_ctrls.num_reads::cpu0.data            1813                       # Number of read requests responded to by this memory
system.mem_ctrls.num_reads::cpu1.inst              13                       # Number of read requests responded to by this memory
system.mem_ctrls.num_reads::cpu1.data               4                       # Number of read requests responded to by this memory
system.mem_ctrls.num_reads::cpu2.inst              12                       # Number of read requests responded to by this memory
system.mem_ctrls.num_reads::cpu2.data               5                       # Number of read requests responded to by this memory
system.mem_ctrls.num_reads::cpu3.inst               3                       # Number of read requests responded to by this memory
system.mem_ctrls.num_reads::cpu3.data               4                       # Number of read requests responded to by this memory
system.mem_ctrls.num_reads::cpu4.data               5                       # Number of read requests responded to by this memory
system.mem_ctrls.num_reads::cpu5.inst               2                       # Number of read requests responded to by this memory
system.mem_ctrls.num_reads::cpu5.data               5                       # Number of read requests responded to by this memory
system.mem_ctrls.num_reads::cpu6.inst               2                       # Number of read requests responded to by this memory
system.mem_ctrls.num_reads::cpu6.data               4                       # Number of read requests responded to by this memory
system.mem_ctrls.num_reads::cpu7.inst               1                       # Number of read requests responded to by this memory
system.mem_ctrls.num_reads::cpu7.data               4                       # Number of read requests responded to by this memory
system.mem_ctrls.num_reads::total                2427                       # Number of read requests responded to by this memory
system.mem_ctrls.bw_read::cpu0.inst         187037554                       # Total read bandwidth from this memory (bytes/s)
system.mem_ctrls.bw_read::cpu0.data         616543790                       # Total read bandwidth from this memory (bytes/s)
system.mem_ctrls.bw_read::cpu1.inst           4420888                       # Total read bandwidth from this memory (bytes/s)
system.mem_ctrls.bw_read::cpu1.data           1360273                       # Total read bandwidth from this memory (bytes/s)
system.mem_ctrls.bw_read::cpu2.inst           4080819                       # Total read bandwidth from this memory (bytes/s)
system.mem_ctrls.bw_read::cpu2.data           1700341                       # Total read bandwidth from this memory (bytes/s)
system.mem_ctrls.bw_read::cpu3.inst           1020205                       # Total read bandwidth from this memory (bytes/s)
system.mem_ctrls.bw_read::cpu3.data           1360273                       # Total read bandwidth from this memory (bytes/s)
system.mem_ctrls.bw_read::cpu4.data           1700341                       # Total read bandwidth from this memory (bytes/s)
system.mem_ctrls.bw_read::cpu5.inst            680137                       # Total read bandwidth from this memory (bytes/s)
system.mem_ctrls.bw_read::cpu5.data           1700341                       # Total read bandwidth from this memory (bytes/s)
system.mem_ctrls.bw_read::cpu6.inst            680137                       # Total read bandwidth from this memory (bytes/s)
system.mem_ctrls.bw_read::cpu6.data           1360273                       # Total read bandwidth from this memory (bytes/s)
system.mem_ctrls.bw_read::cpu7.inst            340068                       # Total read bandwidth from this memory (bytes/s)
system.mem_ctrls.bw_read::cpu7.data           1360273                       # Total read bandwidth from this memory (bytes/s)
system.mem_ctrls.bw_read::total             825345714                       # Total read bandwidth from this memory (bytes/s)
system.mem_ctrls.bw_inst_read::cpu0.inst    187037554                       # Instruction read bandwidth from this memory (bytes/s)
system.mem_ctrls.bw_inst_read::cpu1.inst      4420888                       # Instruction read bandwidth from this memory (bytes/s)
system.mem_ctrls.bw_inst_read::cpu2.inst      4080819                       # Instruction read bandwidth from this memory (bytes/s)
system.mem_ctrls.bw_inst_read::cpu3.inst      1020205                       # Instruction read bandwidth from this memory (bytes/s)
system.mem_ctrls.bw_inst_read::cpu5.inst       680137                       # Instruction read bandwidth from this memory (bytes/s)
system.mem_ctrls.bw_inst_read::cpu6.inst       680137                       # Instruction read bandwidth from this memory (bytes/s)
system.mem_ctrls.bw_inst_read::cpu7.inst       340068                       # Instruction read bandwidth from this memory (bytes/s)
system.mem_ctrls.bw_inst_read::total        198259807                       # Instruction read bandwidth from this memory (bytes/s)
system.mem_ctrls.bw_total::cpu0.inst        187037554                       # Total bandwidth to/from this memory (bytes/s)
system.mem_ctrls.bw_total::cpu0.data        616543790                       # Total bandwidth to/from this memory (bytes/s)
system.mem_ctrls.bw_total::cpu1.inst          4420888                       # Total bandwidth to/from this memory (bytes/s)
system.mem_ctrls.bw_total::cpu1.data          1360273                       # Total bandwidth to/from this memory (bytes/s)
system.mem_ctrls.bw_total::cpu2.inst          4080819                       # Total bandwidth to/from this memory (bytes/s)
system.mem_ctrls.bw_total::cpu2.data          1700341                       # Total bandwidth to/from this memory (bytes/s)
system.mem_ctrls.bw_total::cpu3.inst          1020205                       # Total bandwidth to/from this memory (bytes/s)
system.mem_ctrls.bw_total::cpu3.data          1360273                       # Total bandwidth to/from this memory (bytes/s)
system.mem_ctrls.bw_total::cpu4.data          1700341                       # Total bandwidth to/from this memory (bytes/s)
system.mem_ctrls.bw_total::cpu5.inst           680137                       # Total bandwidth to/from this memory (bytes/s)
system.mem_ctrls.bw_total::cpu5.data          1700341                       # Total bandwidth to/from this memory (bytes/s)
system.mem_ctrls.bw_total::cpu6.inst           680137                       # Total bandwidth to/from this memory (bytes/s)
system.mem_ctrls.bw_total::cpu6.data          1360273                       # Total bandwidth to/from this memory (bytes/s)
system.mem_ctrls.bw_total::cpu7.inst           340068                       # Total bandwidth to/from this memory (bytes/s)
system.mem_ctrls.bw_total::cpu7.data          1360273                       # Total bandwidth to/from this memory (bytes/s)
system.mem_ctrls.bw_total::total            825345714                       # Total bandwidth to/from this memory (bytes/s)
system.mem_ctrls.readReqs                        2427                       # Number of read requests accepted
system.mem_ctrls.writeReqs                          0                       # Number of write requests accepted
system.mem_ctrls.readBursts                      2427                       # Number of DRAM read bursts, including those serviced by the write queue
system.mem_ctrls.writeBursts                        0                       # Number of DRAM write bursts, including those merged in the write queue
system.mem_ctrls.bytesReadDRAM                 155328                       # Total number of bytes read from DRAM
system.mem_ctrls.bytesReadWrQ                       0                       # Total number of bytes read from write queue
system.mem_ctrls.bytesWritten                       0                       # Total number of bytes written to DRAM
system.mem_ctrls.bytesReadSys                  155328                       # Total read bytes from the system interface side
system.mem_ctrls.bytesWrittenSys                    0                       # Total written bytes from the system interface side
system.mem_ctrls.servicedByWrQ                      0                       # Number of DRAM read bursts serviced by the write queue
system.mem_ctrls.mergedWrBursts                     0                       # Number of DRAM write bursts merged with an existing one
system.mem_ctrls.neitherReadNorWriteReqs           31                       # Number of requests that are neither read nor write
system.mem_ctrls.perBankRdBursts::0               131                       # Per bank write bursts
system.mem_ctrls.perBankRdBursts::1               129                       # Per bank write bursts
system.mem_ctrls.perBankRdBursts::2               144                       # Per bank write bursts
system.mem_ctrls.perBankRdBursts::3               216                       # Per bank write bursts
system.mem_ctrls.perBankRdBursts::4               168                       # Per bank write bursts
system.mem_ctrls.perBankRdBursts::5               150                       # Per bank write bursts
system.mem_ctrls.perBankRdBursts::6               224                       # Per bank write bursts
system.mem_ctrls.perBankRdBursts::7               162                       # Per bank write bursts
system.mem_ctrls.perBankRdBursts::8               142                       # Per bank write bursts
system.mem_ctrls.perBankRdBursts::9               138                       # Per bank write bursts
system.mem_ctrls.perBankRdBursts::10              128                       # Per bank write bursts
system.mem_ctrls.perBankRdBursts::11              142                       # Per bank write bursts
system.mem_ctrls.perBankRdBursts::12              134                       # Per bank write bursts
system.mem_ctrls.perBankRdBursts::13              161                       # Per bank write bursts
system.mem_ctrls.perBankRdBursts::14              166                       # Per bank write bursts
system.mem_ctrls.perBankRdBursts::15               92                       # Per bank write bursts
system.mem_ctrls.perBankWrBursts::0                 0                       # Per bank write bursts
system.mem_ctrls.perBankWrBursts::1                 0                       # Per bank write bursts
system.mem_ctrls.perBankWrBursts::2                 0                       # Per bank write bursts
system.mem_ctrls.perBankWrBursts::3                 0                       # Per bank write bursts
system.mem_ctrls.perBankWrBursts::4                 0                       # Per bank write bursts
system.mem_ctrls.perBankWrBursts::5                 0                       # Per bank write bursts
system.mem_ctrls.perBankWrBursts::6                 0                       # Per bank write bursts
system.mem_ctrls.perBankWrBursts::7                 0                       # Per bank write bursts
system.mem_ctrls.perBankWrBursts::8                 0                       # Per bank write bursts
system.mem_ctrls.perBankWrBursts::9                 0                       # Per bank write bursts
system.mem_ctrls.perBankWrBursts::10                0                       # Per bank write bursts
system.mem_ctrls.perBankWrBursts::11                0                       # Per bank write bursts
system.mem_ctrls.perBankWrBursts::12                0                       # Per bank write bursts
system.mem_ctrls.perBankWrBursts::13                0                       # Per bank write bursts
system.mem_ctrls.perBankWrBursts::14                0                       # Per bank write bursts
system.mem_ctrls.perBankWrBursts::15                0                       # Per bank write bursts
system.mem_ctrls.numRdRetry                         0                       # Number of times read queue was full causing retry
system.mem_ctrls.numWrRetry                         0                       # Number of times write queue was full causing retry
system.mem_ctrls.totGap                     188158000                       # Total gap between requests
system.mem_ctrls.readPktSize::0                     0                       # Read request sizes (log2)
system.mem_ctrls.readPktSize::1                     0                       # Read request sizes (log2)
system.mem_ctrls.readPktSize::2                     0                       # Read request sizes (log2)
system.mem_ctrls.readPktSize::3                     0                       # Read request sizes (log2)
system.mem_ctrls.readPktSize::4                     0                       # Read request sizes (log2)
system.mem_ctrls.readPktSize::5                     0                       # Read request sizes (log2)
system.mem_ctrls.readPktSize::6                  2427                       # Read request sizes (log2)
system.mem_ctrls.writePktSize::0                    0                       # Write request sizes (log2)
system.mem_ctrls.writePktSize::1                    0                       # Write request sizes (log2)
system.mem_ctrls.writePktSize::2                    0                       # Write request sizes (log2)
system.mem_ctrls.writePktSize::3                    0                       # Write request sizes (log2)
system.mem_ctrls.writePktSize::4                    0                       # Write request sizes (log2)
system.mem_ctrls.writePktSize::5                    0                       # Write request sizes (log2)
system.mem_ctrls.writePktSize::6                    0                       # Write request sizes (log2)
system.mem_ctrls.rdQLenPdf::0                    1382                       # What read queue length does an incoming req see
system.mem_ctrls.rdQLenPdf::1                     904                       # What read queue length does an incoming req see
system.mem_ctrls.rdQLenPdf::2                      90                       # What read queue length does an incoming req see
system.mem_ctrls.rdQLenPdf::3                      28                       # What read queue length does an incoming req see
system.mem_ctrls.rdQLenPdf::4                      12                       # What read queue length does an incoming req see
system.mem_ctrls.rdQLenPdf::5                       6                       # What read queue length does an incoming req see
system.mem_ctrls.rdQLenPdf::6                       2                       # What read queue length does an incoming req see
system.mem_ctrls.rdQLenPdf::7                       3                       # What read queue length does an incoming req see
system.mem_ctrls.rdQLenPdf::8                       0                       # What read queue length does an incoming req see
system.mem_ctrls.rdQLenPdf::9                       0                       # What read queue length does an incoming req see
system.mem_ctrls.rdQLenPdf::10                      0                       # What read queue length does an incoming req see
system.mem_ctrls.rdQLenPdf::11                      0                       # What read queue length does an incoming req see
system.mem_ctrls.rdQLenPdf::12                      0                       # What read queue length does an incoming req see
system.mem_ctrls.rdQLenPdf::13                      0                       # What read queue length does an incoming req see
system.mem_ctrls.rdQLenPdf::14                      0                       # What read queue length does an incoming req see
system.mem_ctrls.rdQLenPdf::15                      0                       # What read queue length does an incoming req see
system.mem_ctrls.rdQLenPdf::16                      0                       # What read queue length does an incoming req see
system.mem_ctrls.rdQLenPdf::17                      0                       # What read queue length does an incoming req see
system.mem_ctrls.rdQLenPdf::18                      0                       # What read queue length does an incoming req see
system.mem_ctrls.rdQLenPdf::19                      0                       # What read queue length does an incoming req see
system.mem_ctrls.rdQLenPdf::20                      0                       # What read queue length does an incoming req see
system.mem_ctrls.rdQLenPdf::21                      0                       # What read queue length does an incoming req see
system.mem_ctrls.rdQLenPdf::22                      0                       # What read queue length does an incoming req see
system.mem_ctrls.rdQLenPdf::23                      0                       # What read queue length does an incoming req see
system.mem_ctrls.rdQLenPdf::24                      0                       # What read queue length does an incoming req see
system.mem_ctrls.rdQLenPdf::25                      0                       # What read queue length does an incoming req see
system.mem_ctrls.rdQLenPdf::26                      0                       # What read queue length does an incoming req see
system.mem_ctrls.rdQLenPdf::27                      0                       # What read queue length does an incoming req see
system.mem_ctrls.rdQLenPdf::28                      0                       # What read queue length does an incoming req see
system.mem_ctrls.rdQLenPdf::29                      0                       # What read queue length does an incoming req see
system.mem_ctrls.rdQLenPdf::30                      0                       # What read queue length does an incoming req see
system.mem_ctrls.rdQLenPdf::31                      0                       # What read queue length does an incoming req see
system.mem_ctrls.wrQLenPdf::0                       0                       # What write queue length does an incoming req see
system.mem_ctrls.wrQLenPdf::1                       0                       # What write queue length does an incoming req see
system.mem_ctrls.wrQLenPdf::2                       0                       # What write queue length does an incoming req see
system.mem_ctrls.wrQLenPdf::3                       0                       # What write queue length does an incoming req see
system.mem_ctrls.wrQLenPdf::4                       0                       # What write queue length does an incoming req see
system.mem_ctrls.wrQLenPdf::5                       0                       # What write queue length does an incoming req see
system.mem_ctrls.wrQLenPdf::6                       0                       # What write queue length does an incoming req see
system.mem_ctrls.wrQLenPdf::7                       0                       # What write queue length does an incoming req see
system.mem_ctrls.wrQLenPdf::8                       0                       # What write queue length does an incoming req see
system.mem_ctrls.wrQLenPdf::9                       0                       # What write queue length does an incoming req see
system.mem_ctrls.wrQLenPdf::10                      0                       # What write queue length does an incoming req see
system.mem_ctrls.wrQLenPdf::11                      0                       # What write queue length does an incoming req see
system.mem_ctrls.wrQLenPdf::12                      0                       # What write queue length does an incoming req see
system.mem_ctrls.wrQLenPdf::13                      0                       # What write queue length does an incoming req see
system.mem_ctrls.wrQLenPdf::14                      0                       # What write queue length does an incoming req see
system.mem_ctrls.wrQLenPdf::15                      0                       # What write queue length does an incoming req see
system.mem_ctrls.wrQLenPdf::16                      0                       # What write queue length does an incoming req see
system.mem_ctrls.wrQLenPdf::17                      0                       # What write queue length does an incoming req see
system.mem_ctrls.wrQLenPdf::18                      0                       # What write queue length does an incoming req see
system.mem_ctrls.wrQLenPdf::19                      0                       # What write queue length does an incoming req see
system.mem_ctrls.wrQLenPdf::20                      0                       # What write queue length does an incoming req see
system.mem_ctrls.wrQLenPdf::21                      0                       # What write queue length does an incoming req see
system.mem_ctrls.wrQLenPdf::22                      0                       # What write queue length does an incoming req see
system.mem_ctrls.wrQLenPdf::23                      0                       # What write queue length does an incoming req see
system.mem_ctrls.wrQLenPdf::24                      0                       # What write queue length does an incoming req see
system.mem_ctrls.wrQLenPdf::25                      0                       # What write queue length does an incoming req see
system.mem_ctrls.wrQLenPdf::26                      0                       # What write queue length does an incoming req see
system.mem_ctrls.wrQLenPdf::27                      0                       # What write queue length does an incoming req see
system.mem_ctrls.wrQLenPdf::28                      0                       # What write queue length does an incoming req see
system.mem_ctrls.wrQLenPdf::29                      0                       # What write queue length does an incoming req see
system.mem_ctrls.wrQLenPdf::30                      0                       # What write queue length does an incoming req see
system.mem_ctrls.wrQLenPdf::31                      0                       # What write queue length does an incoming req see
system.mem_ctrls.wrQLenPdf::32                      0                       # What write queue length does an incoming req see
system.mem_ctrls.wrQLenPdf::33                      0                       # What write queue length does an incoming req see
system.mem_ctrls.wrQLenPdf::34                      0                       # What write queue length does an incoming req see
system.mem_ctrls.wrQLenPdf::35                      0                       # What write queue length does an incoming req see
system.mem_ctrls.wrQLenPdf::36                      0                       # What write queue length does an incoming req see
system.mem_ctrls.wrQLenPdf::37                      0                       # What write queue length does an incoming req see
system.mem_ctrls.wrQLenPdf::38                      0                       # What write queue length does an incoming req see
system.mem_ctrls.wrQLenPdf::39                      0                       # What write queue length does an incoming req see
system.mem_ctrls.wrQLenPdf::40                      0                       # What write queue length does an incoming req see
system.mem_ctrls.wrQLenPdf::41                      0                       # What write queue length does an incoming req see
system.mem_ctrls.wrQLenPdf::42                      0                       # What write queue length does an incoming req see
system.mem_ctrls.wrQLenPdf::43                      0                       # What write queue length does an incoming req see
system.mem_ctrls.wrQLenPdf::44                      0                       # What write queue length does an incoming req see
system.mem_ctrls.wrQLenPdf::45                      0                       # What write queue length does an incoming req see
system.mem_ctrls.wrQLenPdf::46                      0                       # What write queue length does an incoming req see
system.mem_ctrls.wrQLenPdf::47                      0                       # What write queue length does an incoming req see
system.mem_ctrls.wrQLenPdf::48                      0                       # What write queue length does an incoming req see
system.mem_ctrls.wrQLenPdf::49                      0                       # What write queue length does an incoming req see
system.mem_ctrls.wrQLenPdf::50                      0                       # What write queue length does an incoming req see
system.mem_ctrls.wrQLenPdf::51                      0                       # What write queue length does an incoming req see
system.mem_ctrls.wrQLenPdf::52                      0                       # What write queue length does an incoming req see
system.mem_ctrls.wrQLenPdf::53                      0                       # What write queue length does an incoming req see
system.mem_ctrls.wrQLenPdf::54                      0                       # What write queue length does an incoming req see
system.mem_ctrls.wrQLenPdf::55                      0                       # What write queue length does an incoming req see
system.mem_ctrls.wrQLenPdf::56                      0                       # What write queue length does an incoming req see
system.mem_ctrls.wrQLenPdf::57                      0                       # What write queue length does an incoming req see
system.mem_ctrls.wrQLenPdf::58                      0                       # What write queue length does an incoming req see
system.mem_ctrls.wrQLenPdf::59                      0                       # What write queue length does an incoming req see
system.mem_ctrls.wrQLenPdf::60                      0                       # What write queue length does an incoming req see
system.mem_ctrls.wrQLenPdf::61                      0                       # What write queue length does an incoming req see
system.mem_ctrls.wrQLenPdf::62                      0                       # What write queue length does an incoming req see
system.mem_ctrls.wrQLenPdf::63                      0                       # What write queue length does an incoming req see
system.mem_ctrls.bytesPerActivate::samples          325                       # Bytes accessed per row activation
system.mem_ctrls.bytesPerActivate::mean    473.600000                       # Bytes accessed per row activation
system.mem_ctrls.bytesPerActivate::gmean   265.539008                       # Bytes accessed per row activation
system.mem_ctrls.bytesPerActivate::stdev   421.539565                       # Bytes accessed per row activation
system.mem_ctrls.bytesPerActivate::0-127           99     30.46%     30.46% # Bytes accessed per row activation
system.mem_ctrls.bytesPerActivate::128-255           56     17.23%     47.69% # Bytes accessed per row activation
system.mem_ctrls.bytesPerActivate::256-383           25      7.69%     55.38% # Bytes accessed per row activation
system.mem_ctrls.bytesPerActivate::384-511           10      3.08%     58.46% # Bytes accessed per row activation
system.mem_ctrls.bytesPerActivate::512-639           11      3.38%     61.85% # Bytes accessed per row activation
system.mem_ctrls.bytesPerActivate::640-767            8      2.46%     64.31% # Bytes accessed per row activation
system.mem_ctrls.bytesPerActivate::768-895            5      1.54%     65.85% # Bytes accessed per row activation
system.mem_ctrls.bytesPerActivate::896-1023            6      1.85%     67.69% # Bytes accessed per row activation
system.mem_ctrls.bytesPerActivate::1024-1151          105     32.31%    100.00% # Bytes accessed per row activation
system.mem_ctrls.bytesPerActivate::total          325                       # Bytes accessed per row activation
system.mem_ctrls.totQLat                     18126500                       # Total ticks spent queuing
system.mem_ctrls.totMemAccLat                63632750                       # Total ticks spent from burst creation until serviced by the DRAM
system.mem_ctrls.totBusLat                   12135000                       # Total ticks spent in databus transfers
system.mem_ctrls.avgQLat                      7468.69                       # Average queueing delay per DRAM burst
system.mem_ctrls.avgBusLat                    5000.00                       # Average bus latency per DRAM burst
system.mem_ctrls.avgMemAccLat                26218.69                       # Average memory access latency per DRAM burst
system.mem_ctrls.avgRdBW                       825.35                       # Average DRAM read bandwidth in MiByte/s
system.mem_ctrls.avgWrBW                         0.00                       # Average achieved write bandwidth in MiByte/s
system.mem_ctrls.avgRdBWSys                    825.35                       # Average system read bandwidth in MiByte/s
system.mem_ctrls.avgWrBWSys                      0.00                       # Average system write bandwidth in MiByte/s
system.mem_ctrls.peakBW                      12800.00                       # Theoretical peak bandwidth in MiByte/s
system.mem_ctrls.busUtil                         6.45                       # Data bus utilization in percentage
system.mem_ctrls.busUtilRead                     6.45                       # Data bus utilization in percentage for reads
system.mem_ctrls.busUtilWrite                    0.00                       # Data bus utilization in percentage for writes
system.mem_ctrls.avgRdQLen                       1.44                       # Average read queue length when enqueuing
system.mem_ctrls.avgWrQLen                       0.00                       # Average write queue length when enqueuing
system.mem_ctrls.readRowHits                     2098                       # Number of row buffer hits during reads
system.mem_ctrls.writeRowHits                       0                       # Number of row buffer hits during writes
system.mem_ctrls.readRowHitRate                 86.44                       # Row buffer hit rate for reads
system.mem_ctrls.writeRowHitRate                  nan                       # Row buffer hit rate for writes
system.mem_ctrls.avgGap                      77526.99                       # Average gap between requests
system.mem_ctrls.pageHitRate                    86.44                       # Row buffer hit rate, read and write combined
system.mem_ctrls_0.actEnergy                  1731240                       # Energy for activate commands per rank (pJ)
system.mem_ctrls_0.preEnergy                   944625                       # Energy for precharge commands per rank (pJ)
system.mem_ctrls_0.readEnergy                10327200                       # Energy for read commands per rank (pJ)
system.mem_ctrls_0.writeEnergy                      0                       # Energy for write commands per rank (pJ)
system.mem_ctrls_0.refreshEnergy             12205440                       # Energy for refresh commands per rank (pJ)
system.mem_ctrls_0.actBackEnergy             59608035                       # Energy for active background per rank (pJ)
system.mem_ctrls_0.preBackEnergy             60004500                       # Energy for precharge background per rank (pJ)
system.mem_ctrls_0.totalEnergy              144821040                       # Total energy per rank (pJ)
system.mem_ctrls_0.averagePower            773.807845                       # Core power per rank (mW)
system.mem_ctrls_0.memoryStateTime::IDLE     99262250                       # Time in different power states
system.mem_ctrls_0.memoryStateTime::REF       6240000                       # Time in different power states
system.mem_ctrls_0.memoryStateTime::PRE_PDN            0                       # Time in different power states
system.mem_ctrls_0.memoryStateTime::ACT      81664750                       # Time in different power states
system.mem_ctrls_0.memoryStateTime::ACT_PDN            0                       # Time in different power states
system.mem_ctrls_1.actEnergy                   725760                       # Energy for activate commands per rank (pJ)
system.mem_ctrls_1.preEnergy                   396000                       # Energy for precharge commands per rank (pJ)
system.mem_ctrls_1.readEnergy                 8431800                       # Energy for read commands per rank (pJ)
system.mem_ctrls_1.writeEnergy                      0                       # Energy for write commands per rank (pJ)
system.mem_ctrls_1.refreshEnergy             12205440                       # Energy for refresh commands per rank (pJ)
system.mem_ctrls_1.actBackEnergy             61180380                       # Energy for active background per rank (pJ)
system.mem_ctrls_1.preBackEnergy             58611000                       # Energy for precharge background per rank (pJ)
system.mem_ctrls_1.totalEnergy              141550380                       # Total energy per rank (pJ)
system.mem_ctrls_1.averagePower            756.428045                       # Core power per rank (mW)
system.mem_ctrls_1.memoryStateTime::IDLE     96679500                       # Time in different power states
system.mem_ctrls_1.memoryStateTime::REF       6240000                       # Time in different power states
system.mem_ctrls_1.memoryStateTime::PRE_PDN            0                       # Time in different power states
system.mem_ctrls_1.memoryStateTime::ACT      84224250                       # Time in different power states
system.mem_ctrls_1.memoryStateTime::ACT_PDN            0                       # Time in different power states
system.cpu0.branchPred.lookups                  55956                       # Number of BP lookups
system.cpu0.branchPred.condPredicted            53277                       # Number of conditional branches predicted
system.cpu0.branchPred.condIncorrect             1721                       # Number of conditional branches incorrect
system.cpu0.branchPred.BTBLookups               52739                       # Number of BTB lookups
system.cpu0.branchPred.BTBHits                  48975                       # Number of BTB hits
system.cpu0.branchPred.BTBCorrect                   0                       # Number of correct BTB predictions (this stat may not work properly.
system.cpu0.branchPred.BTBHitPct            92.862967                       # BTB Hit Percentage
system.cpu0.branchPred.usedRAS                    993                       # Number of times the RAS was used to get a target.
system.cpu0.branchPred.RASInCorrect                14                       # Number of incorrect RAS predictions.
system.cpu_voltage_domain.voltage                   1                       # Voltage in Volts
system.cpu_clk_domain.clock                       500                       # Clock period in ticks
system.cpu0.dstage2_mmu.stage2_tlb.walker.walks            0                       # Table walker walks requested
system.cpu0.dstage2_mmu.stage2_tlb.walker.walkRequestOrigin_Requested::Data            0                       # Table walker requests started/completed, data/inst
system.cpu0.dstage2_mmu.stage2_tlb.walker.walkRequestOrigin_Requested::Inst            0                       # Table walker requests started/completed, data/inst
system.cpu0.dstage2_mmu.stage2_tlb.walker.walkRequestOrigin_Requested::total            0                       # Table walker requests started/completed, data/inst
system.cpu0.dstage2_mmu.stage2_tlb.walker.walkRequestOrigin_Completed::Data            0                       # Table walker requests started/completed, data/inst
system.cpu0.dstage2_mmu.stage2_tlb.walker.walkRequestOrigin_Completed::Inst            0                       # Table walker requests started/completed, data/inst
system.cpu0.dstage2_mmu.stage2_tlb.walker.walkRequestOrigin_Completed::total            0                       # Table walker requests started/completed, data/inst
system.cpu0.dstage2_mmu.stage2_tlb.walker.walkRequestOrigin::total            0                       # Table walker requests started/completed, data/inst
system.cpu0.dstage2_mmu.stage2_tlb.inst_hits            0                       # ITB inst hits
system.cpu0.dstage2_mmu.stage2_tlb.inst_misses            0                       # ITB inst misses
system.cpu0.dstage2_mmu.stage2_tlb.read_hits            0                       # DTB read hits
system.cpu0.dstage2_mmu.stage2_tlb.read_misses            0                       # DTB read misses
system.cpu0.dstage2_mmu.stage2_tlb.write_hits            0                       # DTB write hits
system.cpu0.dstage2_mmu.stage2_tlb.write_misses            0                       # DTB write misses
system.cpu0.dstage2_mmu.stage2_tlb.flush_tlb            0                       # Number of times complete TLB was flushed
system.cpu0.dstage2_mmu.stage2_tlb.flush_tlb_mva            0                       # Number of times TLB was flushed by MVA
system.cpu0.dstage2_mmu.stage2_tlb.flush_tlb_mva_asid            0                       # Number of times TLB was flushed by MVA & ASID
system.cpu0.dstage2_mmu.stage2_tlb.flush_tlb_asid            0                       # Number of times TLB was flushed by ASID
system.cpu0.dstage2_mmu.stage2_tlb.flush_entries            0                       # Number of entries that have been flushed from TLB
system.cpu0.dstage2_mmu.stage2_tlb.align_faults            0                       # Number of TLB faults due to alignment restrictions
system.cpu0.dstage2_mmu.stage2_tlb.prefetch_faults            0                       # Number of TLB faults due to prefetch
system.cpu0.dstage2_mmu.stage2_tlb.domain_faults            0                       # Number of TLB faults due to domain restrictions
system.cpu0.dstage2_mmu.stage2_tlb.perms_faults            0                       # Number of TLB faults due to permissions restrictions
system.cpu0.dstage2_mmu.stage2_tlb.read_accesses            0                       # DTB read accesses
system.cpu0.dstage2_mmu.stage2_tlb.write_accesses            0                       # DTB write accesses
system.cpu0.dstage2_mmu.stage2_tlb.inst_accesses            0                       # ITB inst accesses
system.cpu0.dstage2_mmu.stage2_tlb.hits             0                       # DTB hits
system.cpu0.dstage2_mmu.stage2_tlb.misses            0                       # DTB misses
system.cpu0.dstage2_mmu.stage2_tlb.accesses            0                       # DTB accesses
system.cpu0.dtb.walker.walks                        0                       # Table walker walks requested
system.cpu0.dtb.walker.walkRequestOrigin_Requested::Data            0                       # Table walker requests started/completed, data/inst
system.cpu0.dtb.walker.walkRequestOrigin_Requested::Inst            0                       # Table walker requests started/completed, data/inst
system.cpu0.dtb.walker.walkRequestOrigin_Requested::total            0                       # Table walker requests started/completed, data/inst
system.cpu0.dtb.walker.walkRequestOrigin_Completed::Data            0                       # Table walker requests started/completed, data/inst
system.cpu0.dtb.walker.walkRequestOrigin_Completed::Inst            0                       # Table walker requests started/completed, data/inst
system.cpu0.dtb.walker.walkRequestOrigin_Completed::total            0                       # Table walker requests started/completed, data/inst
system.cpu0.dtb.walker.walkRequestOrigin::total            0                       # Table walker requests started/completed, data/inst
system.cpu0.dtb.inst_hits                           0                       # ITB inst hits
system.cpu0.dtb.inst_misses                         0                       # ITB inst misses
system.cpu0.dtb.read_hits                           0                       # DTB read hits
system.cpu0.dtb.read_misses                         0                       # DTB read misses
system.cpu0.dtb.write_hits                          0                       # DTB write hits
system.cpu0.dtb.write_misses                        0                       # DTB write misses
system.cpu0.dtb.flush_tlb                           0                       # Number of times complete TLB was flushed
system.cpu0.dtb.flush_tlb_mva                       0                       # Number of times TLB was flushed by MVA
system.cpu0.dtb.flush_tlb_mva_asid                  0                       # Number of times TLB was flushed by MVA & ASID
system.cpu0.dtb.flush_tlb_asid                      0                       # Number of times TLB was flushed by ASID
system.cpu0.dtb.flush_entries                       0                       # Number of entries that have been flushed from TLB
system.cpu0.dtb.align_faults                        0                       # Number of TLB faults due to alignment restrictions
system.cpu0.dtb.prefetch_faults                     0                       # Number of TLB faults due to prefetch
system.cpu0.dtb.domain_faults                       0                       # Number of TLB faults due to domain restrictions
system.cpu0.dtb.perms_faults                        0                       # Number of TLB faults due to permissions restrictions
system.cpu0.dtb.read_accesses                       0                       # DTB read accesses
system.cpu0.dtb.write_accesses                      0                       # DTB write accesses
system.cpu0.dtb.inst_accesses                       0                       # ITB inst accesses
system.cpu0.dtb.hits                                0                       # DTB hits
system.cpu0.dtb.misses                              0                       # DTB misses
system.cpu0.dtb.accesses                            0                       # DTB accesses
system.cpu0.istage2_mmu.stage2_tlb.walker.walks            0                       # Table walker walks requested
system.cpu0.istage2_mmu.stage2_tlb.walker.walkRequestOrigin_Requested::Data            0                       # Table walker requests started/completed, data/inst
system.cpu0.istage2_mmu.stage2_tlb.walker.walkRequestOrigin_Requested::Inst            0                       # Table walker requests started/completed, data/inst
system.cpu0.istage2_mmu.stage2_tlb.walker.walkRequestOrigin_Requested::total            0                       # Table walker requests started/completed, data/inst
system.cpu0.istage2_mmu.stage2_tlb.walker.walkRequestOrigin_Completed::Data            0                       # Table walker requests started/completed, data/inst
system.cpu0.istage2_mmu.stage2_tlb.walker.walkRequestOrigin_Completed::Inst            0                       # Table walker requests started/completed, data/inst
system.cpu0.istage2_mmu.stage2_tlb.walker.walkRequestOrigin_Completed::total            0                       # Table walker requests started/completed, data/inst
system.cpu0.istage2_mmu.stage2_tlb.walker.walkRequestOrigin::total            0                       # Table walker requests started/completed, data/inst
system.cpu0.istage2_mmu.stage2_tlb.inst_hits            0                       # ITB inst hits
system.cpu0.istage2_mmu.stage2_tlb.inst_misses            0                       # ITB inst misses
system.cpu0.istage2_mmu.stage2_tlb.read_hits            0                       # DTB read hits
system.cpu0.istage2_mmu.stage2_tlb.read_misses            0                       # DTB read misses
system.cpu0.istage2_mmu.stage2_tlb.write_hits            0                       # DTB write hits
system.cpu0.istage2_mmu.stage2_tlb.write_misses            0                       # DTB write misses
system.cpu0.istage2_mmu.stage2_tlb.flush_tlb            0                       # Number of times complete TLB was flushed
system.cpu0.istage2_mmu.stage2_tlb.flush_tlb_mva            0                       # Number of times TLB was flushed by MVA
system.cpu0.istage2_mmu.stage2_tlb.flush_tlb_mva_asid            0                       # Number of times TLB was flushed by MVA & ASID
system.cpu0.istage2_mmu.stage2_tlb.flush_tlb_asid            0                       # Number of times TLB was flushed by ASID
system.cpu0.istage2_mmu.stage2_tlb.flush_entries            0                       # Number of entries that have been flushed from TLB
system.cpu0.istage2_mmu.stage2_tlb.align_faults            0                       # Number of TLB faults due to alignment restrictions
system.cpu0.istage2_mmu.stage2_tlb.prefetch_faults            0                       # Number of TLB faults due to prefetch
system.cpu0.istage2_mmu.stage2_tlb.domain_faults            0                       # Number of TLB faults due to domain restrictions
system.cpu0.istage2_mmu.stage2_tlb.perms_faults            0                       # Number of TLB faults due to permissions restrictions
system.cpu0.istage2_mmu.stage2_tlb.read_accesses            0                       # DTB read accesses
system.cpu0.istage2_mmu.stage2_tlb.write_accesses            0                       # DTB write accesses
system.cpu0.istage2_mmu.stage2_tlb.inst_accesses            0                       # ITB inst accesses
system.cpu0.istage2_mmu.stage2_tlb.hits             0                       # DTB hits
system.cpu0.istage2_mmu.stage2_tlb.misses            0                       # DTB misses
system.cpu0.istage2_mmu.stage2_tlb.accesses            0                       # DTB accesses
system.cpu0.itb.walker.walks                        0                       # Table walker walks requested
system.cpu0.itb.walker.walkRequestOrigin_Requested::Data            0                       # Table walker requests started/completed, data/inst
system.cpu0.itb.walker.walkRequestOrigin_Requested::Inst            0                       # Table walker requests started/completed, data/inst
system.cpu0.itb.walker.walkRequestOrigin_Requested::total            0                       # Table walker requests started/completed, data/inst
system.cpu0.itb.walker.walkRequestOrigin_Completed::Data            0                       # Table walker requests started/completed, data/inst
system.cpu0.itb.walker.walkRequestOrigin_Completed::Inst            0                       # Table walker requests started/completed, data/inst
system.cpu0.itb.walker.walkRequestOrigin_Completed::total            0                       # Table walker requests started/completed, data/inst
system.cpu0.itb.walker.walkRequestOrigin::total            0                       # Table walker requests started/completed, data/inst
system.cpu0.itb.inst_hits                           0                       # ITB inst hits
system.cpu0.itb.inst_misses                         0                       # ITB inst misses
system.cpu0.itb.read_hits                           0                       # DTB read hits
system.cpu0.itb.read_misses                         0                       # DTB read misses
system.cpu0.itb.write_hits                          0                       # DTB write hits
system.cpu0.itb.write_misses                        0                       # DTB write misses
system.cpu0.itb.flush_tlb                           0                       # Number of times complete TLB was flushed
system.cpu0.itb.flush_tlb_mva                       0                       # Number of times TLB was flushed by MVA
system.cpu0.itb.flush_tlb_mva_asid                  0                       # Number of times TLB was flushed by MVA & ASID
system.cpu0.itb.flush_tlb_asid                      0                       # Number of times TLB was flushed by ASID
system.cpu0.itb.flush_entries                       0                       # Number of entries that have been flushed from TLB
system.cpu0.itb.align_faults                        0                       # Number of TLB faults due to alignment restrictions
system.cpu0.itb.prefetch_faults                     0                       # Number of TLB faults due to prefetch
system.cpu0.itb.domain_faults                       0                       # Number of TLB faults due to domain restrictions
system.cpu0.itb.perms_faults                        0                       # Number of TLB faults due to permissions restrictions
system.cpu0.itb.read_accesses                       0                       # DTB read accesses
system.cpu0.itb.write_accesses                      0                       # DTB write accesses
system.cpu0.itb.inst_accesses                       0                       # ITB inst accesses
system.cpu0.itb.hits                                0                       # DTB hits
system.cpu0.itb.misses                              0                       # DTB misses
system.cpu0.itb.accesses                            0                       # DTB accesses
system.cpu0.workload.num_syscalls                  68                       # Number of system calls
system.cpu0.numCycles                          376396                       # number of cpu cycles simulated
system.cpu0.numWorkItemsStarted                     0                       # number of work items this cpu started
system.cpu0.numWorkItemsCompleted                   0                       # number of work items this cpu completed
system.cpu0.fetch.icacheStallCycles             96014                       # Number of cycles fetch is stalled on an Icache miss
system.cpu0.fetch.Insts                        673373                       # Number of instructions fetch has processed
system.cpu0.fetch.Branches                      55956                       # Number of branches that fetch encountered
system.cpu0.fetch.predictedBranches             49968                       # Number of branches that fetch has predicted taken
system.cpu0.fetch.Cycles                       234053                       # Number of cycles fetch has run and was not squashing or blocked
system.cpu0.fetch.SquashCycles                   3597                       # Number of cycles fetch has spent squashing
system.cpu0.fetch.MiscStallCycles                   1                       # Number of cycles fetch has spent waiting on interrupts, or bad addresses, or out of MSHRs
system.cpu0.fetch.PendingTrapStallCycles            5                       # Number of stall cycles due to pending traps
system.cpu0.fetch.CacheLines                    82106                       # Number of cache lines fetched
system.cpu0.fetch.IcacheSquashes                  714                       # Number of outstanding Icache misses that were squashed
system.cpu0.fetch.rateDist::samples            331871                       # Number of instructions fetched each cycle (Total)
system.cpu0.fetch.rateDist::mean             2.128652                       # Number of instructions fetched each cycle (Total)
system.cpu0.fetch.rateDist::stdev            3.305145                       # Number of instructions fetched each cycle (Total)
system.cpu0.fetch.rateDist::underflows              0      0.00%      0.00% # Number of instructions fetched each cycle (Total)
system.cpu0.fetch.rateDist::0                  226699     68.31%     68.31% # Number of instructions fetched each cycle (Total)
system.cpu0.fetch.rateDist::1                    3345      1.01%     69.32% # Number of instructions fetched each cycle (Total)
system.cpu0.fetch.rateDist::2                    5718      1.72%     71.04% # Number of instructions fetched each cycle (Total)
system.cpu0.fetch.rateDist::3                    1074      0.32%     71.36% # Number of instructions fetched each cycle (Total)
system.cpu0.fetch.rateDist::4                    6038      1.82%     73.18% # Number of instructions fetched each cycle (Total)
system.cpu0.fetch.rateDist::5                    1004      0.30%     73.49% # Number of instructions fetched each cycle (Total)
system.cpu0.fetch.rateDist::6                    5088      1.53%     75.02% # Number of instructions fetched each cycle (Total)
system.cpu0.fetch.rateDist::7                   34505     10.40%     85.42% # Number of instructions fetched each cycle (Total)
system.cpu0.fetch.rateDist::8                   48400     14.58%    100.00% # Number of instructions fetched each cycle (Total)
system.cpu0.fetch.rateDist::overflows               0      0.00%    100.00% # Number of instructions fetched each cycle (Total)
system.cpu0.fetch.rateDist::min_value               0                       # Number of instructions fetched each cycle (Total)
system.cpu0.fetch.rateDist::max_value               8                       # Number of instructions fetched each cycle (Total)
system.cpu0.fetch.rateDist::total              331871                       # Number of instructions fetched each cycle (Total)
system.cpu0.fetch.branchRate                 0.148663                       # Number of branch fetches per cycle
system.cpu0.fetch.rate                       1.789001                       # Number of inst fetches per cycle
system.cpu0.decode.IdleCycles                   86909                       # Number of cycles decode is idle
system.cpu0.decode.BlockedCycles               144879                       # Number of cycles decode is blocked
system.cpu0.decode.RunCycles                    91421                       # Number of cycles decode is running
system.cpu0.decode.UnblockCycles                 7209                       # Number of cycles decode is unblocking
system.cpu0.decode.SquashCycles                  1453                       # Number of cycles decode is squashing
system.cpu0.decode.BranchResolved                1196                       # Number of times decode resolved a branch
system.cpu0.decode.BranchMispred                  355                       # Number of times decode detected a branch misprediction
system.cpu0.decode.DecodedInsts                697657                       # Number of instructions handled by decode
system.cpu0.decode.SquashedInsts                 1349                       # Number of squashed instructions handled by decode
system.cpu0.rename.SquashCycles                  1453                       # Number of cycles rename is squashing
system.cpu0.rename.IdleCycles                   90864                       # Number of cycles rename is idle
system.cpu0.rename.BlockCycles                   3898                       # Number of cycles rename is blocking
system.cpu0.rename.serializeStallCycles         10288                       # count of cycles rename stalled for serializing inst
system.cpu0.rename.RunCycles                    94574                       # Number of cycles rename is running
system.cpu0.rename.UnblockCycles               130794                       # Number of cycles rename is unblocking
system.cpu0.rename.RenamedInsts                690332                       # Number of instructions processed by rename
system.cpu0.rename.ROBFullEvents                   11                       # Number of times rename has blocked due to ROB full
system.cpu0.rename.IQFullEvents                  1228                       # Number of times rename has blocked due to IQ full
system.cpu0.rename.LQFullEvents                  5556                       # Number of times rename has blocked due to LQ full
system.cpu0.rename.SQFullEvents                121637                       # Number of times rename has blocked due to SQ full
system.cpu0.rename.RenamedOperands             866597                       # Number of destination operands rename has renamed
system.cpu0.rename.RenameLookups              3425731                       # Number of register rename lookups that rename has made
system.cpu0.rename.int_rename_lookups         1127817                       # Number of integer rename lookups
system.cpu0.rename.fp_rename_lookups               22                       # Number of floating rename lookups
system.cpu0.rename.CommittedMaps               832043                       # Number of HB maps that are committed
system.cpu0.rename.UndoneMaps                   34554                       # Number of HB maps that are undone due to squashing
system.cpu0.rename.serializingInsts               146                       # count of serializing insts renamed
system.cpu0.rename.tempSerializingInsts           147                       # count of temporary serializing insts renamed
system.cpu0.rename.skidInsts                    42086                       # count of insts added to the skid buffer
system.cpu0.memDep0.insertedLoads              142808                       # Number of loads inserted to the mem dependence unit.
system.cpu0.memDep0.insertedStores              48219                       # Number of stores inserted to the mem dependence unit.
system.cpu0.memDep0.conflictingLoads             1626                       # Number of conflicting loads.
system.cpu0.memDep0.conflictingStores             547                       # Number of conflicting stores.
system.cpu0.iq.iqInstsAdded                    682878                       # Number of instructions added to the IQ (excludes non-spec)
system.cpu0.iq.iqNonSpecInstsAdded                292                       # Number of non-speculative instructions added to the IQ
system.cpu0.iq.iqInstsIssued                   674867                       # Number of instructions issued
system.cpu0.iq.iqSquashedInstsIssued               95                       # Number of squashed instructions issued
system.cpu0.iq.iqSquashedInstsExamined          21903                       # Number of squashed instructions iterated over during squash; mainly for profiling
system.cpu0.iq.iqSquashedOperandsExamined        56953                       # Number of squashed operands that are examined and possibly removed from graph
system.cpu0.iq.iqSquashedNonSpecRemoved            96                       # Number of squashed non-spec instructions that were removed
system.cpu0.iq.issued_per_cycle::samples       331871                       # Number of insts issued each cycle
system.cpu0.iq.issued_per_cycle::mean        2.033522                       # Number of insts issued each cycle
system.cpu0.iq.issued_per_cycle::stdev       2.523094                       # Number of insts issued each cycle
system.cpu0.iq.issued_per_cycle::underflows            0      0.00%      0.00% # Number of insts issued each cycle
system.cpu0.iq.issued_per_cycle::0             146557     44.16%     44.16% # Number of insts issued each cycle
system.cpu0.iq.issued_per_cycle::1              41673     12.56%     56.72% # Number of insts issued each cycle
system.cpu0.iq.issued_per_cycle::2              26076      7.86%     64.58% # Number of insts issued each cycle
system.cpu0.iq.issued_per_cycle::3              38764     11.68%     76.26% # Number of insts issued each cycle
system.cpu0.iq.issued_per_cycle::4              30482      9.18%     85.44% # Number of insts issued each cycle
system.cpu0.iq.issued_per_cycle::5               8957      2.70%     88.14% # Number of insts issued each cycle
system.cpu0.iq.issued_per_cycle::6               6135      1.85%     89.99% # Number of insts issued each cycle
system.cpu0.iq.issued_per_cycle::7               4589      1.38%     91.37% # Number of insts issued each cycle
system.cpu0.iq.issued_per_cycle::8              28638      8.63%    100.00% # Number of insts issued each cycle
system.cpu0.iq.issued_per_cycle::overflows            0      0.00%    100.00% # Number of insts issued each cycle
system.cpu0.iq.issued_per_cycle::min_value            0                       # Number of insts issued each cycle
system.cpu0.iq.issued_per_cycle::max_value            8                       # Number of insts issued each cycle
system.cpu0.iq.issued_per_cycle::total         331871                       # Number of insts issued each cycle
system.cpu0.iq.fu_full::No_OpClass                  0      0.00%      0.00% # attempts to use FU when none available
system.cpu0.iq.fu_full::IntAlu                    565      3.11%      3.11% # attempts to use FU when none available
system.cpu0.iq.fu_full::IntMult                 17129     94.41%     97.53% # attempts to use FU when none available
system.cpu0.iq.fu_full::IntDiv                      0      0.00%     97.53% # attempts to use FU when none available
system.cpu0.iq.fu_full::FloatAdd                    0      0.00%     97.53% # attempts to use FU when none available
system.cpu0.iq.fu_full::FloatCmp                    0      0.00%     97.53% # attempts to use FU when none available
system.cpu0.iq.fu_full::FloatCvt                    0      0.00%     97.53% # attempts to use FU when none available
system.cpu0.iq.fu_full::FloatMult                   0      0.00%     97.53% # attempts to use FU when none available
system.cpu0.iq.fu_full::FloatDiv                    0      0.00%     97.53% # attempts to use FU when none available
system.cpu0.iq.fu_full::FloatSqrt                   0      0.00%     97.53% # attempts to use FU when none available
system.cpu0.iq.fu_full::SimdAdd                     0      0.00%     97.53% # attempts to use FU when none available
system.cpu0.iq.fu_full::SimdAddAcc                  0      0.00%     97.53% # attempts to use FU when none available
system.cpu0.iq.fu_full::SimdAlu                     0      0.00%     97.53% # attempts to use FU when none available
system.cpu0.iq.fu_full::SimdCmp                     0      0.00%     97.53% # attempts to use FU when none available
system.cpu0.iq.fu_full::SimdCvt                     0      0.00%     97.53% # attempts to use FU when none available
system.cpu0.iq.fu_full::SimdMisc                    0      0.00%     97.53% # attempts to use FU when none available
system.cpu0.iq.fu_full::SimdMult                    0      0.00%     97.53% # attempts to use FU when none available
system.cpu0.iq.fu_full::SimdMultAcc                 0      0.00%     97.53% # attempts to use FU when none available
system.cpu0.iq.fu_full::SimdShift                   0      0.00%     97.53% # attempts to use FU when none available
system.cpu0.iq.fu_full::SimdShiftAcc                0      0.00%     97.53% # attempts to use FU when none available
system.cpu0.iq.fu_full::SimdSqrt                    0      0.00%     97.53% # attempts to use FU when none available
system.cpu0.iq.fu_full::SimdFloatAdd                0      0.00%     97.53% # attempts to use FU when none available
system.cpu0.iq.fu_full::SimdFloatAlu                0      0.00%     97.53% # attempts to use FU when none available
system.cpu0.iq.fu_full::SimdFloatCmp                0      0.00%     97.53% # attempts to use FU when none available
system.cpu0.iq.fu_full::SimdFloatCvt                0      0.00%     97.53% # attempts to use FU when none available
system.cpu0.iq.fu_full::SimdFloatDiv                0      0.00%     97.53% # attempts to use FU when none available
system.cpu0.iq.fu_full::SimdFloatMisc               0      0.00%     97.53% # attempts to use FU when none available
system.cpu0.iq.fu_full::SimdFloatMult               0      0.00%     97.53% # attempts to use FU when none available
system.cpu0.iq.fu_full::SimdFloatMultAcc            0      0.00%     97.53% # attempts to use FU when none available
system.cpu0.iq.fu_full::SimdFloatSqrt               0      0.00%     97.53% # attempts to use FU when none available
system.cpu0.iq.fu_full::MemRead                   233      1.28%     98.81% # attempts to use FU when none available
system.cpu0.iq.fu_full::MemWrite                  216      1.19%    100.00% # attempts to use FU when none available
system.cpu0.iq.fu_full::IprAccess                   0      0.00%    100.00% # attempts to use FU when none available
system.cpu0.iq.fu_full::InstPrefetch                0      0.00%    100.00% # attempts to use FU when none available
system.cpu0.iq.FU_type_0::No_OpClass                0      0.00%      0.00% # Type of FU issued
system.cpu0.iq.FU_type_0::IntAlu               378654     56.11%     56.11% # Type of FU issued
system.cpu0.iq.FU_type_0::IntMult              106818     15.83%     71.94% # Type of FU issued
system.cpu0.iq.FU_type_0::IntDiv                    0      0.00%     71.94% # Type of FU issued
system.cpu0.iq.FU_type_0::FloatAdd                  0      0.00%     71.94% # Type of FU issued
system.cpu0.iq.FU_type_0::FloatCmp                  0      0.00%     71.94% # Type of FU issued
system.cpu0.iq.FU_type_0::FloatCvt                  0      0.00%     71.94% # Type of FU issued
system.cpu0.iq.FU_type_0::FloatMult                 0      0.00%     71.94% # Type of FU issued
system.cpu0.iq.FU_type_0::FloatDiv                  0      0.00%     71.94% # Type of FU issued
system.cpu0.iq.FU_type_0::FloatSqrt                 0      0.00%     71.94% # Type of FU issued
system.cpu0.iq.FU_type_0::SimdAdd                   0      0.00%     71.94% # Type of FU issued
system.cpu0.iq.FU_type_0::SimdAddAcc                0      0.00%     71.94% # Type of FU issued
system.cpu0.iq.FU_type_0::SimdAlu                   0      0.00%     71.94% # Type of FU issued
system.cpu0.iq.FU_type_0::SimdCmp                   0      0.00%     71.94% # Type of FU issued
system.cpu0.iq.FU_type_0::SimdCvt                   0      0.00%     71.94% # Type of FU issued
system.cpu0.iq.FU_type_0::SimdMisc                  0      0.00%     71.94% # Type of FU issued
system.cpu0.iq.FU_type_0::SimdMult                  0      0.00%     71.94% # Type of FU issued
system.cpu0.iq.FU_type_0::SimdMultAcc               0      0.00%     71.94% # Type of FU issued
system.cpu0.iq.FU_type_0::SimdShift                 0      0.00%     71.94% # Type of FU issued
system.cpu0.iq.FU_type_0::SimdShiftAcc              0      0.00%     71.94% # Type of FU issued
system.cpu0.iq.FU_type_0::SimdSqrt                  0      0.00%     71.94% # Type of FU issued
system.cpu0.iq.FU_type_0::SimdFloatAdd              0      0.00%     71.94% # Type of FU issued
system.cpu0.iq.FU_type_0::SimdFloatAlu              0      0.00%     71.94% # Type of FU issued
system.cpu0.iq.FU_type_0::SimdFloatCmp              0      0.00%     71.94% # Type of FU issued
system.cpu0.iq.FU_type_0::SimdFloatCvt              0      0.00%     71.94% # Type of FU issued
system.cpu0.iq.FU_type_0::SimdFloatDiv              0      0.00%     71.94% # Type of FU issued
system.cpu0.iq.FU_type_0::SimdFloatMisc             3      0.00%     71.94% # Type of FU issued
system.cpu0.iq.FU_type_0::SimdFloatMult             0      0.00%     71.94% # Type of FU issued
system.cpu0.iq.FU_type_0::SimdFloatMultAcc            0      0.00%     71.94% # Type of FU issued
system.cpu0.iq.FU_type_0::SimdFloatSqrt             0      0.00%     71.94% # Type of FU issued
system.cpu0.iq.FU_type_0::MemRead              142107     21.06%     92.99% # Type of FU issued
system.cpu0.iq.FU_type_0::MemWrite              47285      7.01%    100.00% # Type of FU issued
system.cpu0.iq.FU_type_0::IprAccess                 0      0.00%    100.00% # Type of FU issued
system.cpu0.iq.FU_type_0::InstPrefetch              0      0.00%    100.00% # Type of FU issued
system.cpu0.iq.FU_type_0::total                674867                       # Type of FU issued
system.cpu0.iq.rate                          1.792971                       # Inst issue rate
system.cpu0.iq.fu_busy_cnt                      18143                       # FU busy when requested
system.cpu0.iq.fu_busy_rate                  0.026884                       # FU busy rate (busy events/executed inst)
system.cpu0.iq.int_inst_queue_reads           1699781                       # Number of integer instruction queue reads
system.cpu0.iq.int_inst_queue_writes           705121                       # Number of integer instruction queue writes
system.cpu0.iq.int_inst_queue_wakeup_accesses       670193                       # Number of integer instruction queue wakeup accesses
system.cpu0.iq.fp_inst_queue_reads                 62                       # Number of floating instruction queue reads
system.cpu0.iq.fp_inst_queue_writes                28                       # Number of floating instruction queue writes
system.cpu0.iq.fp_inst_queue_wakeup_accesses           28                       # Number of floating instruction queue wakeup accesses
system.cpu0.iq.int_alu_accesses                692976                       # Number of integer alu accesses
system.cpu0.iq.fp_alu_accesses                     34                       # Number of floating point alu accesses
system.cpu0.iew.lsq.thread0.forwLoads             128                       # Number of loads that had data forwarded from stores
system.cpu0.iew.lsq.thread0.invAddrLoads            0                       # Number of loads ignored due to an invalid address
system.cpu0.iew.lsq.thread0.squashedLoads         5416                       # Number of loads squashed
system.cpu0.iew.lsq.thread0.ignoredResponses            4                       # Number of memory responses ignored because the instruction is squashed
system.cpu0.iew.lsq.thread0.memOrderViolation           81                       # Number of memory ordering violations
system.cpu0.iew.lsq.thread0.squashedStores         1635                       # Number of stores squashed
system.cpu0.iew.lsq.thread0.invAddrSwpfs            0                       # Number of software prefetches ignored due to an invalid address
system.cpu0.iew.lsq.thread0.blockedLoads            0                       # Number of blocked loads due to partial load-store forwarding
system.cpu0.iew.lsq.thread0.rescheduledLoads          179                       # Number of loads that were rescheduled
system.cpu0.iew.lsq.thread0.cacheBlocked          113                       # Number of times an access to memory failed due to the cache being blocked
system.cpu0.iew.iewIdleCycles                       0                       # Number of cycles IEW is idle
system.cpu0.iew.iewSquashCycles                  1453                       # Number of cycles IEW is squashing
system.cpu0.iew.iewBlockCycles                   2772                       # Number of cycles IEW is blocking
system.cpu0.iew.iewUnblockCycles                  766                       # Number of cycles IEW is unblocking
system.cpu0.iew.iewDispatchedInsts             683177                       # Number of instructions dispatched to IQ
system.cpu0.iew.iewDispSquashedInsts              264                       # Number of squashed instructions skipped by dispatch
system.cpu0.iew.iewDispLoadInsts               142808                       # Number of dispatched load instructions
system.cpu0.iew.iewDispStoreInsts               48219                       # Number of dispatched store instructions
system.cpu0.iew.iewDispNonSpecInsts               138                       # Number of dispatched non-speculative instructions
system.cpu0.iew.iewIQFullEvents                    36                       # Number of times the IQ has become full, causing a stall
system.cpu0.iew.iewLSQFullEvents                  719                       # Number of times the LSQ has become full, causing a stall
system.cpu0.iew.memOrderViolationEvents            81                       # Number of memory order violations
system.cpu0.iew.predictedTakenIncorrect           847                       # Number of branches that were predicted taken incorrectly
system.cpu0.iew.predictedNotTakenIncorrect          668                       # Number of branches that were predicted not taken incorrectly
system.cpu0.iew.branchMispredicts                1515                       # Number of branch mispredicts detected at execute
system.cpu0.iew.iewExecutedInsts               672988                       # Number of executed instructions
system.cpu0.iew.iewExecLoadInsts               141362                       # Number of load instructions executed
system.cpu0.iew.iewExecSquashedInsts             1879                       # Number of squashed instructions skipped in execute
system.cpu0.iew.exec_swp                            0                       # number of swp insts executed
system.cpu0.iew.exec_nop                            7                       # number of nop insts executed
system.cpu0.iew.exec_refs                      188437                       # number of memory reference insts executed
system.cpu0.iew.exec_branches                   51127                       # Number of branches executed
system.cpu0.iew.exec_stores                     47075                       # Number of stores executed
system.cpu0.iew.exec_rate                    1.787979                       # Inst execution rate
system.cpu0.iew.wb_sent                        670691                       # cumulative count of insts sent to commit
system.cpu0.iew.wb_count                       670221                       # cumulative count of insts written-back
system.cpu0.iew.wb_producers                   510371                       # num instructions producing a value
system.cpu0.iew.wb_consumers                   819013                       # num instructions consuming a value
system.cpu0.iew.wb_penalized                        0                       # number of instrctions required to write to 'other' IQ
system.cpu0.iew.wb_rate                      1.780627                       # insts written-back per cycle
system.cpu0.iew.wb_fanout                    0.623154                       # average fanout of values written-back
system.cpu0.iew.wb_penalized_rate                   0                       # fraction of instructions written-back that wrote to 'other' IQ
system.cpu0.commit.commitSquashedInsts          21923                       # The number of squashed insts skipped by commit
system.cpu0.commit.commitNonSpecStalls            196                       # The number of times commit has been forced to stall to communicate backwards
system.cpu0.commit.branchMispredicts             1376                       # The number of times a branch was mispredicted
system.cpu0.commit.committed_per_cycle::samples       328549                       # Number of insts commited each cycle
system.cpu0.commit.committed_per_cycle::mean     2.012689                       # Number of insts commited each cycle
system.cpu0.commit.committed_per_cycle::stdev     2.859647                       # Number of insts commited each cycle
system.cpu0.commit.committed_per_cycle::underflows            0      0.00%      0.00% # Number of insts commited each cycle
system.cpu0.commit.committed_per_cycle::0       166782     50.76%     50.76% # Number of insts commited each cycle
system.cpu0.commit.committed_per_cycle::1        54948     16.72%     67.49% # Number of insts commited each cycle
system.cpu0.commit.committed_per_cycle::2        16615      5.06%     72.54% # Number of insts commited each cycle
system.cpu0.commit.committed_per_cycle::3         2719      0.83%     73.37% # Number of insts commited each cycle
system.cpu0.commit.committed_per_cycle::4        10671      3.25%     76.62% # Number of insts commited each cycle
system.cpu0.commit.committed_per_cycle::5        26096      7.94%     84.56% # Number of insts commited each cycle
system.cpu0.commit.committed_per_cycle::6         6163      1.88%     86.44% # Number of insts commited each cycle
system.cpu0.commit.committed_per_cycle::7         1650      0.50%     86.94% # Number of insts commited each cycle
system.cpu0.commit.committed_per_cycle::8        42905     13.06%    100.00% # Number of insts commited each cycle
system.cpu0.commit.committed_per_cycle::overflows            0      0.00%    100.00% # Number of insts commited each cycle
system.cpu0.commit.committed_per_cycle::min_value            0                       # Number of insts commited each cycle
system.cpu0.commit.committed_per_cycle::max_value            8                       # Number of insts commited each cycle
system.cpu0.commit.committed_per_cycle::total       328549                       # Number of insts commited each cycle
system.cpu0.commit.committedInsts              632043                       # Number of instructions committed
[...]
system.l2.ReadExReq_avg_mshr_miss_latency::cpu7.data 74312.500000                       # average ReadExReq mshr miss latency
system.l2.ReadExReq_avg_mshr_miss_latency::total 62751.892836                       # average ReadExReq mshr miss latency
system.l2.demand_avg_mshr_miss_latency::cpu0.inst 64488.656987                       # average overall mshr miss latency
system.l2.demand_avg_mshr_miss_latency::cpu0.data 62574.462217                       # average overall mshr miss latency
system.l2.demand_avg_mshr_miss_latency::cpu1.inst 73153.846154                       # average overall mshr miss latency
system.l2.demand_avg_mshr_miss_latency::cpu1.data 114687.500000                       # average overall mshr miss latency
system.l2.demand_avg_mshr_miss_latency::cpu2.inst 82020.833333                       # average overall mshr miss latency
system.l2.demand_avg_mshr_miss_latency::cpu2.data       114200                       # average overall mshr miss latency
system.l2.demand_avg_mshr_miss_latency::cpu3.inst 66833.333333                       # average overall mshr miss latency
system.l2.demand_avg_mshr_miss_latency::cpu3.data 145812.500000                       # average overall mshr miss latency
system.l2.demand_avg_mshr_miss_latency::cpu4.data       115000                       # average overall mshr miss latency
system.l2.demand_avg_mshr_miss_latency::cpu5.inst        65500                       # average overall mshr miss latency
system.l2.demand_avg_mshr_miss_latency::cpu5.data       112450                       # average overall mshr miss latency
system.l2.demand_avg_mshr_miss_latency::cpu6.inst        56500                       # average overall mshr miss latency
system.l2.demand_avg_mshr_miss_latency::cpu6.data       143500                       # average overall mshr miss latency
system.l2.demand_avg_mshr_miss_latency::cpu7.inst        56250                       # average overall mshr miss latency
system.l2.demand_avg_mshr_miss_latency::cpu7.data 74312.500000                       # average overall mshr miss latency
system.l2.demand_avg_mshr_miss_latency::total 63854.303954                       # average overall mshr miss latency
system.l2.overall_avg_mshr_miss_latency::cpu0.inst 64488.656987                       # average overall mshr miss latency
system.l2.overall_avg_mshr_miss_latency::cpu0.data 62574.462217                       # average overall mshr miss latency
system.l2.overall_avg_mshr_miss_latency::cpu1.inst 73153.846154                       # average overall mshr miss latency
system.l2.overall_avg_mshr_miss_latency::cpu1.data 114687.500000                       # average overall mshr miss latency
system.l2.overall_avg_mshr_miss_latency::cpu2.inst 82020.833333                       # average overall mshr miss latency
system.l2.overall_avg_mshr_miss_latency::cpu2.data       114200                       # average overall mshr miss latency
system.l2.overall_avg_mshr_miss_latency::cpu3.inst 66833.333333                       # average overall mshr miss latency
system.l2.overall_avg_mshr_miss_latency::cpu3.data 145812.500000                       # average overall mshr miss latency
system.l2.overall_avg_mshr_miss_latency::cpu4.data       115000                       # average overall mshr miss latency
system.l2.overall_avg_mshr_miss_latency::cpu5.inst        65500                       # average overall mshr miss latency
system.l2.overall_avg_mshr_miss_latency::cpu5.data       112450                       # average overall mshr miss latency
system.l2.overall_avg_mshr_miss_latency::cpu6.inst        56500                       # average overall mshr miss latency
system.l2.overall_avg_mshr_miss_latency::cpu6.data       143500                       # average overall mshr miss latency
system.l2.overall_avg_mshr_miss_latency::cpu7.inst        56250                       # average overall mshr miss latency
system.l2.overall_avg_mshr_miss_latency::cpu7.data 74312.500000                       # average overall mshr miss latency
system.l2.overall_avg_mshr_miss_latency::total 63854.303954                       # average overall mshr miss latency
system.l2.no_allocate_misses                        0                       # Number of misses that were no-allocate
system.membus.trans_dist::ReadReq                 710                       # Transaction distribution
system.membus.trans_dist::ReadResp                709                       # Transaction distribution
system.membus.trans_dist::UpgradeReq               48                       # Transaction distribution
system.membus.trans_dist::SCUpgradeReq             22                       # Transaction distribution
system.membus.trans_dist::UpgradeResp              31                       # Transaction distribution
system.membus.trans_dist::SCUpgradeFailReq            1                       # Transaction distribution
system.membus.trans_dist::ReadExReq              1718                       # Transaction distribution
system.membus.trans_dist::ReadExResp             1717                       # Transaction distribution
system.membus.pkt_count_system.l2.mem_side::system.mem_ctrls.port         4956                       # Packet count per connected master and slave (bytes)
system.membus.pkt_count::total                   4956                       # Packet count per connected master and slave (bytes)
system.membus.pkt_size_system.l2.mem_side::system.mem_ctrls.port       155264                       # Cumulative packet size per connected master and slave (bytes)
system.membus.pkt_size::total                  155264                       # Cumulative packet size per connected master and slave (bytes)
system.membus.snoops                               41                       # Total snoops (count)
system.membus.snoop_fanout::samples              2499                       # Request fanout histogram
system.membus.snoop_fanout::mean                    0                       # Request fanout histogram
system.membus.snoop_fanout::stdev                   0                       # Request fanout histogram
system.membus.snoop_fanout::underflows              0      0.00%      0.00% # Request fanout histogram
system.membus.snoop_fanout::0                    2499    100.00%    100.00% # Request fanout histogram
system.membus.snoop_fanout::1                       0      0.00%    100.00% # Request fanout histogram
system.membus.snoop_fanout::overflows               0      0.00%    100.00% # Request fanout histogram
system.membus.snoop_fanout::min_value               0                       # Request fanout histogram
system.membus.snoop_fanout::max_value               0                       # Request fanout histogram
system.membus.snoop_fanout::total                2499                       # Request fanout histogram
system.membus.reqLayer0.occupancy             2717001                       # Layer occupancy (ticks)
system.membus.reqLayer0.utilization               1.4                       # Layer utilization (%)
system.membus.respLayer1.occupancy           12856720                       # Layer occupancy (ticks)
system.membus.respLayer1.utilization              6.8                       # Layer utilization (%)
system.tol2bus.trans_dist::ReadReq              12772                       # Transaction distribution
system.tol2bus.trans_dist::ReadResp             12770                       # Transaction distribution
system.tol2bus.trans_dist::Writeback             6509                       # Transaction distribution
system.tol2bus.trans_dist::UpgradeReq              56                       # Transaction distribution
system.tol2bus.trans_dist::SCUpgradeReq            23                       # Transaction distribution
system.tol2bus.trans_dist::UpgradeResp             79                       # Transaction distribution
system.tol2bus.trans_dist::SCUpgradeFailReq            3                       # Transaction distribution
system.tol2bus.trans_dist::UpgradeFailResp            3                       # Transaction distribution
system.tol2bus.trans_dist::ReadExReq             6585                       # Transaction distribution
system.tol2bus.trans_dist::ReadExResp            6585                       # Transaction distribution
system.tol2bus.pkt_count_system.cpu0.icache.mem_side::system.l2.cpu_side         1310                       # Packet count per connected master and slave (bytes)
system.tol2bus.pkt_count_system.cpu0.dcache.mem_side::system.l2.cpu_side        10863                       # Packet count per connected master and slave (bytes)
system.tol2bus.pkt_count_system.cpu1.icache.mem_side::system.l2.cpu_side          104                       # Packet count per connected master and slave (bytes)
system.tol2bus.pkt_count_system.cpu1.dcache.mem_side::system.l2.cpu_side         3197                       # Packet count per connected master and slave (bytes)
system.tol2bus.pkt_count_system.cpu2.icache.mem_side::system.l2.cpu_side          106                       # Packet count per connected master and slave (bytes)
system.tol2bus.pkt_count_system.cpu2.dcache.mem_side::system.l2.cpu_side         3131                       # Packet count per connected master and slave (bytes)
system.tol2bus.pkt_count_system.cpu3.icache.mem_side::system.l2.cpu_side          114                       # Packet count per connected master and slave (bytes)
system.tol2bus.pkt_count_system.cpu3.dcache.mem_side::system.l2.cpu_side         3199                       # Packet count per connected master and slave (bytes)
system.tol2bus.pkt_count_system.cpu4.icache.mem_side::system.l2.cpu_side          102                       # Packet count per connected master and slave (bytes)
system.tol2bus.pkt_count_system.cpu4.dcache.mem_side::system.l2.cpu_side         3193                       # Packet count per connected master and slave (bytes)
system.tol2bus.pkt_count_system.cpu5.icache.mem_side::system.l2.cpu_side          116                       # Packet count per connected master and slave (bytes)
system.tol2bus.pkt_count_system.cpu5.dcache.mem_side::system.l2.cpu_side         3332                       # Packet count per connected master and slave (bytes)
system.tol2bus.pkt_count_system.cpu6.icache.mem_side::system.l2.cpu_side          110                       # Packet count per connected master and slave (bytes)
system.tol2bus.pkt_count_system.cpu6.dcache.mem_side::system.l2.cpu_side         3079                       # Packet count per connected master and slave (bytes)
system.tol2bus.pkt_count_system.cpu7.icache.mem_side::system.l2.cpu_side          104                       # Packet count per connected master and slave (bytes)
system.tol2bus.pkt_count_system.cpu7.dcache.mem_side::system.l2.cpu_side         3100                       # Packet count per connected master and slave (bytes)
system.tol2bus.pkt_count::total                 35160                       # Packet count per connected master and slave (bytes)
system.tol2bus.pkt_size_system.cpu0.icache.mem_side::system.l2.cpu_side        41856                       # Cumulative packet size per connected master and slave (bytes)
system.tol2bus.pkt_size_system.cpu0.dcache.mem_side::system.l2.cpu_side       428416                       # Cumulative packet size per connected master and slave (bytes)
system.tol2bus.pkt_size_system.cpu1.icache.mem_side::system.l2.cpu_side         3328                       # Cumulative packet size per connected master and slave (bytes)
system.tol2bus.pkt_size_system.cpu1.dcache.mem_side::system.l2.cpu_side        72768                       # Cumulative packet size per connected master and slave (bytes)
system.tol2bus.pkt_size_system.cpu2.icache.mem_side::system.l2.cpu_side         3392                       # Cumulative packet size per connected master and slave (bytes)
system.tol2bus.pkt_size_system.cpu2.dcache.mem_side::system.l2.cpu_side        68096                       # Cumulative packet size per connected master and slave (bytes)
system.tol2bus.pkt_size_system.cpu3.icache.mem_side::system.l2.cpu_side         3648                       # Cumulative packet size per connected master and slave (bytes)
system.tol2bus.pkt_size_system.cpu3.dcache.mem_side::system.l2.cpu_side        73088                       # Cumulative packet size per connected master and slave (bytes)
system.tol2bus.pkt_size_system.cpu4.icache.mem_side::system.l2.cpu_side         3264                       # Cumulative packet size per connected master and slave (bytes)
system.tol2bus.pkt_size_system.cpu4.dcache.mem_side::system.l2.cpu_side        74368                       # Cumulative packet size per connected master and slave (bytes)
system.tol2bus.pkt_size_system.cpu5.icache.mem_side::system.l2.cpu_side         3712                       # Cumulative packet size per connected master and slave (bytes)
system.tol2bus.pkt_size_system.cpu5.dcache.mem_side::system.l2.cpu_side        83648                       # Cumulative packet size per connected master and slave (bytes)
system.tol2bus.pkt_size_system.cpu6.icache.mem_side::system.l2.cpu_side         3520                       # Cumulative packet size per connected master and slave (bytes)
system.tol2bus.pkt_size_system.cpu6.dcache.mem_side::system.l2.cpu_side        68352                       # Cumulative packet size per connected master and slave (bytes)
system.tol2bus.pkt_size_system.cpu7.icache.mem_side::system.l2.cpu_side         3328                       # Cumulative packet size per connected master and slave (bytes)
system.tol2bus.pkt_size_system.cpu7.dcache.mem_side::system.l2.cpu_side        68800                       # Cumulative packet size per connected master and slave (bytes)
system.tol2bus.pkt_size::total                1003584                       # Cumulative packet size per connected master and slave (bytes)
system.tol2bus.snoops                           10225                       # Total snoops (count)
system.tol2bus.snoop_fanout::samples            25949                       # Request fanout histogram
system.tol2bus.snoop_fanout::mean                  15                       # Request fanout histogram
system.tol2bus.snoop_fanout::stdev                  0                       # Request fanout histogram
system.tol2bus.snoop_fanout::underflows             0      0.00%      0.00% # Request fanout histogram
system.tol2bus.snoop_fanout::0                      0      0.00%      0.00% # Request fanout histogram
system.tol2bus.snoop_fanout::1                      0      0.00%      0.00% # Request fanout histogram
system.tol2bus.snoop_fanout::2                      0      0.00%      0.00% # Request fanout histogram
system.tol2bus.snoop_fanout::3                      0      0.00%      0.00% # Request fanout histogram
system.tol2bus.snoop_fanout::4                      0      0.00%      0.00% # Request fanout histogram
system.tol2bus.snoop_fanout::5                      0      0.00%      0.00% # Request fanout histogram
system.tol2bus.snoop_fanout::6                      0      0.00%      0.00% # Request fanout histogram
system.tol2bus.snoop_fanout::7                      0      0.00%      0.00% # Request fanout histogram
system.tol2bus.snoop_fanout::8                      0      0.00%      0.00% # Request fanout histogram
system.tol2bus.snoop_fanout::9                      0      0.00%      0.00% # Request fanout histogram
system.tol2bus.snoop_fanout::10                     0      0.00%      0.00% # Request fanout histogram
system.tol2bus.snoop_fanout::11                     0      0.00%      0.00% # Request fanout histogram
system.tol2bus.snoop_fanout::12                     0      0.00%      0.00% # Request fanout histogram
system.tol2bus.snoop_fanout::13                     0      0.00%      0.00% # Request fanout histogram
system.tol2bus.snoop_fanout::14                     0      0.00%      0.00% # Request fanout histogram
system.tol2bus.snoop_fanout::15                 25949    100.00%    100.00% # Request fanout histogram
system.tol2bus.snoop_fanout::16                     0      0.00%    100.00% # Request fanout histogram
system.tol2bus.snoop_fanout::overflows              0      0.00%    100.00% # Request fanout histogram
system.tol2bus.snoop_fanout::min_value             15                       # Request fanout histogram
system.tol2bus.snoop_fanout::max_value             15                       # Request fanout histogram
system.tol2bus.snoop_fanout::total              25949                       # Request fanout histogram
system.tol2bus.reqLayer0.occupancy           19484498                       # Layer occupancy (ticks)
system.tol2bus.reqLayer0.utilization             10.4                       # Layer utilization (%)
system.tol2bus.respLayer0.occupancy           1085732                       # Layer occupancy (ticks)
system.tol2bus.respLayer0.utilization             0.6                       # Layer utilization (%)
system.tol2bus.respLayer1.occupancy           6529500                       # Layer occupancy (ticks)
system.tol2bus.respLayer1.utilization             3.5                       # Layer utilization (%)
system.tol2bus.respLayer4.occupancy             85968                       # Layer occupancy (ticks)
system.tol2bus.respLayer4.utilization             0.0                       # Layer utilization (%)
system.tol2bus.respLayer5.occupancy           3109679                       # Layer occupancy (ticks)
system.tol2bus.respLayer5.utilization             1.7                       # Layer utilization (%)
system.tol2bus.respLayer8.occupancy             85461                       # Layer occupancy (ticks)
system.tol2bus.respLayer8.utilization             0.0                       # Layer utilization (%)
system.tol2bus.respLayer9.occupancy           3117444                       # Layer occupancy (ticks)
system.tol2bus.respLayer9.utilization             1.7                       # Layer utilization (%)
system.tol2bus.respLayer12.occupancy            93703                       # Layer occupancy (ticks)
system.tol2bus.respLayer12.utilization            0.0                       # Layer utilization (%)
system.tol2bus.respLayer13.occupancy          3099692                       # Layer occupancy (ticks)
system.tol2bus.respLayer13.utilization            1.6                       # Layer utilization (%)
system.tol2bus.respLayer16.occupancy            81217                       # Layer occupancy (ticks)
system.tol2bus.respLayer16.utilization            0.0                       # Layer utilization (%)
system.tol2bus.respLayer17.occupancy          3070439                       # Layer occupancy (ticks)
system.tol2bus.respLayer17.utilization            1.6                       # Layer utilization (%)
system.tol2bus.respLayer20.occupancy            90719                       # Layer occupancy (ticks)
system.tol2bus.respLayer20.utilization            0.0                       # Layer utilization (%)
system.tol2bus.respLayer21.occupancy          3052194                       # Layer occupancy (ticks)
system.tol2bus.respLayer21.utilization            1.6                       # Layer utilization (%)
system.tol2bus.respLayer24.occupancy            86458                       # Layer occupancy (ticks)
system.tol2bus.respLayer24.utilization            0.0                       # Layer utilization (%)
system.tol2bus.respLayer25.occupancy          3025454                       # Layer occupancy (ticks)
system.tol2bus.respLayer25.utilization            1.6                       # Layer utilization (%)
system.tol2bus.respLayer28.occupancy            80231                       # Layer occupancy (ticks)
system.tol2bus.respLayer28.utilization            0.0                       # Layer utilization (%)
system.tol2bus.respLayer29.occupancy          3046212                       # Layer occupancy (ticks)
system.tol2bus.respLayer29.utilization            1.6                       # Layer utilization (%)

---------- End Simulation Statistics   ----------
