
---------- Begin Simulation Statistics ----------
sim_seconds                                  0.000159                       # Number of seconds simulated
sim_ticks                                   159195500                       # Number of ticks simulated
final_tick                                  159195500                       # Number of ticks from beginning of simulation (restored from checkpoints and never reset)
sim_freq                                 1000000000000                       # Frequency of simulated ticks
host_inst_rate                                 233855                       # Simulator instruction rate (inst/s)
host_op_rate                                   235665                       # Simulator op (including micro ops) rate (op/s)
host_tick_rate                                7927295                       # Simulator tick rate (ticks/s)
host_mem_usage                                 741152                       # Number of bytes of host memory used
host_seconds                                    20.08                       # Real time elapsed on the host
sim_insts                                     4696264                       # Number of instructions simulated
sim_ops                                       4732598                       # Number of ops (including micro ops) simulated
system.voltage_domain.voltage                       1                       # Voltage in Volts
system.clk_domain.clock                          1000                       # Clock period in ticks
system.mem_ctrls.bytes_read::cpu00.inst         34880                       # Number of bytes read from this memory
system.mem_ctrls.bytes_read::cpu00.data        118080                       # Number of bytes read from this memory
system.mem_ctrls.bytes_read::cpu01.inst           768                       # Number of bytes read from this memory
system.mem_ctrls.bytes_read::cpu01.data           256                       # Number of bytes read from this memory
system.mem_ctrls.bytes_read::cpu02.inst           448                       # Number of bytes read from this memory
system.mem_ctrls.bytes_read::cpu02.data           256                       # Number of bytes read from this memory
system.mem_ctrls.bytes_read::cpu03.inst            64                       # Number of bytes read from this memory
system.mem_ctrls.bytes_read::cpu03.data           256                       # Number of bytes read from this memory
system.mem_ctrls.bytes_read::cpu04.inst           320                       # Number of bytes read from this memory
system.mem_ctrls.bytes_read::cpu04.data           320                       # Number of bytes read from this memory
system.mem_ctrls.bytes_read::cpu05.inst           192                       # Number of bytes read from this memory
system.mem_ctrls.bytes_read::cpu05.data           256                       # Number of bytes read from this memory
system.mem_ctrls.bytes_read::cpu06.inst            64                       # Number of bytes read from this memory
system.mem_ctrls.bytes_read::cpu06.data           320                       # Number of bytes read from this memory
system.mem_ctrls.bytes_read::cpu07.inst           256                       # Number of bytes read from this memory
system.mem_ctrls.bytes_read::cpu07.data           256                       # Number of bytes read from this memory
system.mem_ctrls.bytes_read::cpu08.data           256                       # Number of bytes read from this memory
system.mem_ctrls.bytes_read::cpu09.inst            64                       # Number of bytes read from this memory
system.mem_ctrls.bytes_read::cpu09.data           256                       # Number of bytes read from this memory
system.mem_ctrls.bytes_read::cpu10.data           256                       # Number of bytes read from this memory
system.mem_ctrls.bytes_read::cpu11.inst            64                       # Number of bytes read from this memory
system.mem_ctrls.bytes_read::cpu11.data           256                       # Number of bytes read from this memory
system.mem_ctrls.bytes_read::cpu12.data           320                       # Number of bytes read from this memory
system.mem_ctrls.bytes_read::cpu13.inst            64                       # Number of bytes read from this memory
system.mem_ctrls.bytes_read::cpu13.data           256                       # Number of bytes read from this memory
system.mem_ctrls.bytes_read::cpu14.data           256                       # Number of bytes read from this memory
system.mem_ctrls.bytes_read::cpu15.inst            64                       # Number of bytes read from this memory
system.mem_ctrls.bytes_read::cpu15.data           256                       # Number of bytes read from this memory
system.mem_ctrls.bytes_read::total             159360                       # Number of bytes read from this memory
system.mem_ctrls.bytes_inst_read::cpu00.inst        34880                       # Number of instructions bytes read from this memory
system.mem_ctrls.bytes_inst_read::cpu01.inst          768                       # Number of instructions bytes read from this memory
system.mem_ctrls.bytes_inst_read::cpu02.inst          448                       # Number of instructions bytes read from this memory
system.mem_ctrls.bytes_inst_read::cpu03.inst           64                       # Number of instructions bytes read from this memory
system.mem_ctrls.bytes_inst_read::cpu04.inst          320                       # Number of instructions bytes read from this memory
system.mem_ctrls.bytes_inst_read::cpu05.inst          192                       # Number of instructions bytes read from this memory
system.mem_ctrls.bytes_inst_read::cpu06.inst           64                       # Number of instructions bytes read from this memory
system.mem_ctrls.bytes_inst_read::cpu07.inst          256                       # Number of instructions bytes read from this memory
system.mem_ctrls.bytes_inst_read::cpu09.inst           64                       # Number of instructions bytes read from this memory
system.mem_ctrls.bytes_inst_read::cpu11.inst           64                       # Number of instructions bytes read from this memory
system.mem_ctrls.bytes_inst_read::cpu13.inst           64                       # Number of instructions bytes read from this memory
system.mem_ctrls.bytes_inst_read::cpu15.inst           64                       # Number of instructions bytes read from this memory
system.mem_ctrls.bytes_inst_read::total         37248                       # Number of instructions bytes read from this memory
system.mem_ctrls.num_reads::cpu00.inst            545                       # Number of read requests responded to by this memory
system.mem_ctrls.num_reads::cpu00.data           1845                       # Number of read requests responded to by this memory
system.mem_ctrls.num_reads::cpu01.inst             12                       # Number of read requests responded to by this memory
system.mem_ctrls.num_reads::cpu01.data              4                       # Number of read requests responded to by this memory
system.mem_ctrls.num_reads::cpu02.inst              7                       # Number of read requests responded to by this memory
system.mem_ctrls.num_reads::cpu02.data              4                       # Number of read requests responded to by this memory
system.mem_ctrls.num_reads::cpu03.inst              1                       # Number of read requests responded to by this memory
system.mem_ctrls.num_reads::cpu03.data              4                       # Number of read requests responded to by this memory
system.mem_ctrls.num_reads::cpu04.inst              5                       # Number of read requests responded to by this memory
system.mem_ctrls.num_reads::cpu04.data              5                       # Number of read requests responded to by this memory
system.mem_ctrls.num_reads::cpu05.inst              3                       # Number of read requests responded to by this memory
system.mem_ctrls.num_reads::cpu05.data              4                       # Number of read requests responded to by this memory
system.mem_ctrls.num_reads::cpu06.inst              1                       # Number of read requests responded to by this memory
system.mem_ctrls.num_reads::cpu06.data              5                       # Number of read requests responded to by this memory
system.mem_ctrls.num_reads::cpu07.inst              4                       # Number of read requests responded to by this memory
system.mem_ctrls.num_reads::cpu07.data              4                       # Number of read requests responded to by this memory
system.mem_ctrls.num_reads::cpu08.data              4                       # Number of read requests responded to by this memory
system.mem_ctrls.num_reads::cpu09.inst              1                       # Number of read requests responded to by this memory
system.mem_ctrls.num_reads::cpu09.data              4                       # Number of read requests responded to by this memory
system.mem_ctrls.num_reads::cpu10.data              4                       # Number of read requests responded to by this memory
system.mem_ctrls.num_reads::cpu11.inst              1                       # Number of read requests responded to by this memory
system.mem_ctrls.num_reads::cpu11.data              4                       # Number of read requests responded to by this memory
system.mem_ctrls.num_reads::cpu12.data              5                       # Number of read requests responded to by this memory
system.mem_ctrls.num_reads::cpu13.inst              1                       # Number of read requests responded to by this memory
system.mem_ctrls.num_reads::cpu13.data              4                       # Number of read requests responded to by this memory
system.mem_ctrls.num_reads::cpu14.data              4                       # Number of read requests responded to by this memory
system.mem_ctrls.num_reads::cpu15.inst              1                       # Number of read requests responded to by this memory
system.mem_ctrls.num_reads::cpu15.data              4                       # Number of read requests responded to by this memory
system.mem_ctrls.num_reads::total                2490                       # Number of read requests responded to by this memory
system.mem_ctrls.bw_read::cpu00.inst        219101671                       # Total read bandwidth from this memory (bytes/s)
system.mem_ctrls.bw_read::cpu00.data        741729509                       # Total read bandwidth from this memory (bytes/s)
system.mem_ctrls.bw_read::cpu01.inst          4824257                       # Total read bandwidth from this memory (bytes/s)
system.mem_ctrls.bw_read::cpu01.data          1608086                       # Total read bandwidth from this memory (bytes/s)
system.mem_ctrls.bw_read::cpu02.inst          2814150                       # Total read bandwidth from this memory (bytes/s)
system.mem_ctrls.bw_read::cpu02.data          1608086                       # Total read bandwidth from this memory (bytes/s)
system.mem_ctrls.bw_read::cpu03.inst           402021                       # Total read bandwidth from this memory (bytes/s)
system.mem_ctrls.bw_read::cpu03.data          1608086                       # Total read bandwidth from this memory (bytes/s)
system.mem_ctrls.bw_read::cpu04.inst          2010107                       # Total read bandwidth from this memory (bytes/s)
system.mem_ctrls.bw_read::cpu04.data          2010107                       # Total read bandwidth from this memory (bytes/s)
system.mem_ctrls.bw_read::cpu05.inst          1206064                       # Total read bandwidth from this memory (bytes/s)
system.mem_ctrls.bw_read::cpu05.data          1608086                       # Total read bandwidth from this memory (bytes/s)
system.mem_ctrls.bw_read::cpu06.inst           402021                       # Total read bandwidth from this memory (bytes/s)
system.mem_ctrls.bw_read::cpu06.data          2010107                       # Total read bandwidth from this memory (bytes/s)
system.mem_ctrls.bw_read::cpu07.inst          1608086                       # Total read bandwidth from this memory (bytes/s)
system.mem_ctrls.bw_read::cpu07.data          1608086                       # Total read bandwidth from this memory (bytes/s)
system.mem_ctrls.bw_read::cpu08.data          1608086                       # Total read bandwidth from this memory (bytes/s)
system.mem_ctrls.bw_read::cpu09.inst           402021                       # Total read bandwidth from this memory (bytes/s)
system.mem_ctrls.bw_read::cpu09.data          1608086                       # Total read bandwidth from this memory (bytes/s)
system.mem_ctrls.bw_read::cpu10.data          1608086                       # Total read bandwidth from this memory (bytes/s)
system.mem_ctrls.bw_read::cpu11.inst           402021                       # Total read bandwidth from this memory (bytes/s)
system.mem_ctrls.bw_read::cpu11.data          1608086                       # Total read bandwidth from this memory (bytes/s)
system.mem_ctrls.bw_read::cpu12.data          2010107                       # Total read bandwidth from this memory (bytes/s)
system.mem_ctrls.bw_read::cpu13.inst           402021                       # Total read bandwidth from this memory (bytes/s)
system.mem_ctrls.bw_read::cpu13.data          1608086                       # Total read bandwidth from this memory (bytes/s)
system.mem_ctrls.bw_read::cpu14.data          1608086                       # Total read bandwidth from this memory (bytes/s)
system.mem_ctrls.bw_read::cpu15.inst           402021                       # Total read bandwidth from this memory (bytes/s)
system.mem_ctrls.bw_read::cpu15.data          1608086                       # Total read bandwidth from this memory (bytes/s)
system.mem_ctrls.bw_read::total            1001033321                       # Total read bandwidth from this memory (bytes/s)
system.mem_ctrls.bw_inst_read::cpu00.inst    219101671                       # Instruction read bandwidth from this memory (bytes/s)
system.mem_ctrls.bw_inst_read::cpu01.inst      4824257                       # Instruction read bandwidth from this memory (bytes/s)
system.mem_ctrls.bw_inst_read::cpu02.inst      2814150                       # Instruction read bandwidth from this memory (bytes/s)
system.mem_ctrls.bw_inst_read::cpu03.inst       402021                       # Instruction read bandwidth from this memory (bytes/s)
system.mem_ctrls.bw_inst_read::cpu04.inst      2010107                       # Instruction read bandwidth from this memory (bytes/s)
system.mem_ctrls.bw_inst_read::cpu05.inst      1206064                       # Instruction read bandwidth from this memory (bytes/s)
system.mem_ctrls.bw_inst_read::cpu06.inst       402021                       # Instruction read bandwidth from this memory (bytes/s)
system.mem_ctrls.bw_inst_read::cpu07.inst      1608086                       # Instruction read bandwidth from this memory (bytes/s)
system.mem_ctrls.bw_inst_read::cpu09.inst       402021                       # Instruction read bandwidth from this memory (bytes/s)
system.mem_ctrls.bw_inst_read::cpu11.inst       402021                       # Instruction read bandwidth from this memory (bytes/s)
system.mem_ctrls.bw_inst_read::cpu13.inst       402021                       # Instruction read bandwidth from this memory (bytes/s)
system.mem_ctrls.bw_inst_read::cpu15.inst       402021                       # Instruction read bandwidth from this memory (bytes/s)
system.mem_ctrls.bw_inst_read::total        233976463                       # Instruction read bandwidth from this memory (bytes/s)
system.mem_ctrls.bw_total::cpu00.inst       219101671                       # Total bandwidth to/from this memory (bytes/s)
system.mem_ctrls.bw_total::cpu00.data       741729509                       # Total bandwidth to/from this memory (bytes/s)
system.mem_ctrls.bw_total::cpu01.inst         4824257                       # Total bandwidth to/from this memory (bytes/s)
system.mem_ctrls.bw_total::cpu01.data         1608086                       # Total bandwidth to/from this memory (bytes/s)
system.mem_ctrls.bw_total::cpu02.inst         2814150                       # Total bandwidth to/from this memory (bytes/s)
system.mem_ctrls.bw_total::cpu02.data         1608086                       # Total bandwidth to/from this memory (bytes/s)
system.mem_ctrls.bw_total::cpu03.inst          402021                       # Total bandwidth to/from this memory (bytes/s)
system.mem_ctrls.bw_total::cpu03.data         1608086                       # Total bandwidth to/from this memory (bytes/s)
system.mem_ctrls.bw_total::cpu04.inst         2010107                       # Total bandwidth to/from this memory (bytes/s)
system.mem_ctrls.bw_total::cpu04.data         2010107                       # Total bandwidth to/from this memory (bytes/s)
system.mem_ctrls.bw_total::cpu05.inst         1206064                       # Total bandwidth to/from this memory (bytes/s)
system.mem_ctrls.bw_total::cpu05.data         1608086                       # Total bandwidth to/from this memory (bytes/s)
system.mem_ctrls.bw_total::cpu06.inst          402021                       # Total bandwidth to/from this memory (bytes/s)
system.mem_ctrls.bw_total::cpu06.data         2010107                       # Total bandwidth to/from this memory (bytes/s)
system.mem_ctrls.bw_total::cpu07.inst         1608086                       # Total bandwidth to/from this memory (bytes/s)
system.mem_ctrls.bw_total::cpu07.data         1608086                       # Total bandwidth to/from this memory (bytes/s)
system.mem_ctrls.bw_total::cpu08.data         1608086                       # Total bandwidth to/from this memory (bytes/s)
system.mem_ctrls.bw_total::cpu09.inst          402021                       # Total bandwidth to/from this memory (bytes/s)
system.mem_ctrls.bw_total::cpu09.data         1608086                       # Total bandwidth to/from this memory (bytes/s)
system.mem_ctrls.bw_total::cpu10.data         1608086                       # Total bandwidth to/from this memory (bytes/s)
system.mem_ctrls.bw_total::cpu11.inst          402021                       # Total bandwidth to/from this memory (bytes/s)
system.mem_ctrls.bw_total::cpu11.data         1608086                       # Total bandwidth to/from this memory (bytes/s)
system.mem_ctrls.bw_total::cpu12.data         2010107                       # Total bandwidth to/from this memory (bytes/s)
system.mem_ctrls.bw_total::cpu13.inst          402021                       # Total bandwidth to/from this memory (bytes/s)
system.mem_ctrls.bw_total::cpu13.data         1608086                       # Total bandwidth to/from this memory (bytes/s)
system.mem_ctrls.bw_total::cpu14.data         1608086                       # Total bandwidth to/from this memory (bytes/s)
system.mem_ctrls.bw_total::cpu15.inst          402021                       # Total bandwidth to/from this memory (bytes/s)
system.mem_ctrls.bw_total::cpu15.data         1608086                       # Total bandwidth to/from this memory (bytes/s)
system.mem_ctrls.bw_total::total           1001033321                       # Total bandwidth to/from this memory (bytes/s)
system.mem_ctrls.readReqs                        2490                       # Number of read requests accepted
system.mem_ctrls.writeReqs                          0                       # Number of write requests accepted
system.mem_ctrls.readBursts                      2490                       # Number of DRAM read bursts, including those serviced by the write queue
system.mem_ctrls.writeBursts                        0                       # Number of DRAM write bursts, including those merged in the write queue
system.mem_ctrls.bytesReadDRAM                 159360                       # Total number of bytes read from DRAM
system.mem_ctrls.bytesReadWrQ                       0                       # Total number of bytes read from write queue
system.mem_ctrls.bytesWritten                       0                       # Total number of bytes written to DRAM
system.mem_ctrls.bytesReadSys                  159360                       # Total read bytes from the system interface side
system.mem_ctrls.bytesWrittenSys                    0                       # Total written bytes from the system interface side
system.mem_ctrls.servicedByWrQ                      0                       # Number of DRAM read bursts serviced by the write queue
system.mem_ctrls.mergedWrBursts                     0                       # Number of DRAM write bursts merged with an existing one
system.mem_ctrls.neitherReadNorWriteReqs           27                       # Number of requests that are neither read nor write
system.mem_ctrls.perBankRdBursts::0               132                       # Per bank write bursts
system.mem_ctrls.perBankRdBursts::1               136                       # Per bank write bursts
system.mem_ctrls.perBankRdBursts::2               144                       # Per bank write bursts
system.mem_ctrls.perBankRdBursts::3               240                       # Per bank write bursts
system.mem_ctrls.perBankRdBursts::4               192                       # Per bank write bursts
system.mem_ctrls.perBankRdBursts::5               150                       # Per bank write bursts
system.mem_ctrls.perBankRdBursts::6               224                       # Per bank write bursts
system.mem_ctrls.perBankRdBursts::7               162                       # Per bank write bursts
system.mem_ctrls.perBankRdBursts::8               142                       # Per bank write bursts
system.mem_ctrls.perBankRdBursts::9               138                       # Per bank write bursts
system.mem_ctrls.perBankRdBursts::10              128                       # Per bank write bursts
system.mem_ctrls.perBankRdBursts::11              142                       # Per bank write bursts
system.mem_ctrls.perBankRdBursts::12              134                       # Per bank write bursts
system.mem_ctrls.perBankRdBursts::13              161                       # Per bank write bursts
system.mem_ctrls.perBankRdBursts::14              166                       # Per bank write bursts
system.mem_ctrls.perBankRdBursts::15               99                       # Per bank write bursts
system.mem_ctrls.perBankWrBursts::0                 0                       # Per bank write bursts
system.mem_ctrls.perBankWrBursts::1                 0                       # Per bank write bursts
system.mem_ctrls.perBankWrBursts::2                 0                       # Per bank write bursts
system.mem_ctrls.perBankWrBursts::3                 0                       # Per bank write bursts
system.mem_ctrls.perBankWrBursts::4                 0                       # Per bank write bursts
system.mem_ctrls.perBankWrBursts::5                 0                       # Per bank write bursts
system.mem_ctrls.perBankWrBursts::6                 0                       # Per bank write bursts
system.mem_ctrls.perBankWrBursts::7                 0                       # Per bank write bursts
system.mem_ctrls.perBankWrBursts::8                 0                       # Per bank write bursts
system.mem_ctrls.perBankWrBursts::9                 0                       # Per bank write bursts
system.mem_ctrls.perBankWrBursts::10                0                       # Per bank write bursts
system.mem_ctrls.perBankWrBursts::11                0                       # Per bank write bursts
system.mem_ctrls.perBankWrBursts::12                0                       # Per bank write bursts
system.mem_ctrls.perBankWrBursts::13                0                       # Per bank write bursts
system.mem_ctrls.perBankWrBursts::14                0                       # Per bank write bursts
system.mem_ctrls.perBankWrBursts::15                0                       # Per bank write bursts
system.mem_ctrls.numRdRetry                         0                       # Number of times read queue was full causing retry
system.mem_ctrls.numWrRetry                         0                       # Number of times write queue was full causing retry
system.mem_ctrls.totGap                     159155500                       # Total gap between requests
system.mem_ctrls.readPktSize::0                     0                       # Read request sizes (log2)
system.mem_ctrls.readPktSize::1                     0                       # Read request sizes (log2)
system.mem_ctrls.readPktSize::2                     0                       # Read request sizes (log2)
system.mem_ctrls.readPktSize::3                     0                       # Read request sizes (log2)
system.mem_ctrls.readPktSize::4                     0                       # Read request sizes (log2)
system.mem_ctrls.readPktSize::5                     0                       # Read request sizes (log2)
system.mem_ctrls.readPktSize::6                  2490                       # Read request sizes (log2)
system.mem_ctrls.writePktSize::0                    0                       # Write request sizes (log2)
system.mem_ctrls.writePktSize::1                    0                       # Write request sizes (log2)
system.mem_ctrls.writePktSize::2                    0                       # Write request sizes (log2)
system.mem_ctrls.writePktSize::3                    0                       # Write request sizes (log2)
system.mem_ctrls.writePktSize::4                    0                       # Write request sizes (log2)
system.mem_ctrls.writePktSize::5                    0                       # Write request sizes (log2)
system.mem_ctrls.writePktSize::6                    0                       # Write request sizes (log2)
system.mem_ctrls.rdQLenPdf::0                    1387                       # What read queue length does an incoming req see
system.mem_ctrls.rdQLenPdf::1                     928                       # What read queue length does an incoming req see
system.mem_ctrls.rdQLenPdf::2                     107                       # What read queue length does an incoming req see
system.mem_ctrls.rdQLenPdf::3                      34                       # What read queue length does an incoming req see
system.mem_ctrls.rdQLenPdf::4                      13                       # What read queue length does an incoming req see
system.mem_ctrls.rdQLenPdf::5                       7                       # What read queue length does an incoming req see
system.mem_ctrls.rdQLenPdf::6                       3                       # What read queue length does an incoming req see
system.mem_ctrls.rdQLenPdf::7                       2                       # What read queue length does an incoming req see
system.mem_ctrls.rdQLenPdf::8                       2                       # What read queue length does an incoming req see
system.mem_ctrls.rdQLenPdf::9                       1                       # What read queue length does an incoming req see
system.mem_ctrls.rdQLenPdf::10                      1                       # What read queue length does an incoming req see
system.mem_ctrls.rdQLenPdf::11                      2                       # What read queue length does an incoming req see
system.mem_ctrls.rdQLenPdf::12                      1                       # What read queue length does an incoming req see
system.mem_ctrls.rdQLenPdf::13                      1                       # What read queue length does an incoming req see
system.mem_ctrls.rdQLenPdf::14                      1                       # What read queue length does an incoming req see
system.mem_ctrls.rdQLenPdf::15                      0                       # What read queue length does an incoming req see
system.mem_ctrls.rdQLenPdf::16                      0                       # What read queue length does an incoming req see
system.mem_ctrls.rdQLenPdf::17                      0                       # What read queue length does an incoming req see
system.mem_ctrls.rdQLenPdf::18                      0                       # What read queue length does an incoming req see
system.mem_ctrls.rdQLenPdf::19                      0                       # What read queue length does an incoming req see
system.mem_ctrls.rdQLenPdf::20                      0                       # What read queue length does an incoming req see
system.mem_ctrls.rdQLenPdf::21                      0                       # What read queue length does an incoming req see
system.mem_ctrls.rdQLenPdf::22                      0                       # What read queue length does an incoming req see
system.mem_ctrls.rdQLenPdf::23                      0                       # What read queue length does an incoming req see
system.mem_ctrls.rdQLenPdf::24                      0                       # What read queue length does an incoming req see
system.mem_ctrls.rdQLenPdf::25                      0                       # What read queue length does an incoming req see
system.mem_ctrls.rdQLenPdf::26                      0                       # What read queue length does an incoming req see
system.mem_ctrls.rdQLenPdf::27                      0                       # What read queue length does an incoming req see
system.mem_ctrls.rdQLenPdf::28                      0                       # What read queue length does an incoming req see
system.mem_ctrls.rdQLenPdf::29                      0                       # What read queue length does an incoming req see
system.mem_ctrls.rdQLenPdf::30                      0                       # What read queue length does an incoming req see
system.mem_ctrls.rdQLenPdf::31                      0                       # What read queue length does an incoming req see
system.mem_ctrls.wrQLenPdf::0                       0                       # What write queue length does an incoming req see
system.mem_ctrls.wrQLenPdf::1                       0                       # What write queue length does an incoming req see
system.mem_ctrls.wrQLenPdf::2                       0                       # What write queue length does an incoming req see
system.mem_ctrls.wrQLenPdf::3                       0                       # What write queue length does an incoming req see
system.mem_ctrls.wrQLenPdf::4                       0                       # What write queue length does an incoming req see
system.mem_ctrls.wrQLenPdf::5                       0                       # What write queue length does an incoming req see
system.mem_ctrls.wrQLenPdf::6                       0                       # What write queue length does an incoming req see
system.mem_ctrls.wrQLenPdf::7                       0                       # What write queue length does an incoming req see
system.mem_ctrls.wrQLenPdf::8                       0                       # What write queue length does an incoming req see
system.mem_ctrls.wrQLenPdf::9                       0                       # What write queue length does an incoming req see
system.mem_ctrls.wrQLenPdf::10                      0                       # What write queue length does an incoming req see
system.mem_ctrls.wrQLenPdf::11                      0                       # What write queue length does an incoming req see
system.mem_ctrls.wrQLenPdf::12                      0                       # What write queue length does an incoming req see
system.mem_ctrls.wrQLenPdf::13                      0                       # What write queue length does an incoming req see
system.mem_ctrls.wrQLenPdf::14                      0                       # What write queue length does an incoming req see
system.mem_ctrls.wrQLenPdf::15                      0                       # What write queue length does an incoming req see
system.mem_ctrls.wrQLenPdf::16                      0                       # What write queue length does an incoming req see
system.mem_ctrls.wrQLenPdf::17                      0                       # What write queue length does an incoming req see
system.mem_ctrls.wrQLenPdf::18                      0                       # What write queue length does an incoming req see
system.mem_ctrls.wrQLenPdf::19                      0                       # What write queue length does an incoming req see
system.mem_ctrls.wrQLenPdf::20                      0                       # What write queue length does an incoming req see
system.mem_ctrls.wrQLenPdf::21                      0                       # What write queue length does an incoming req see
system.mem_ctrls.wrQLenPdf::22                      0                       # What write queue length does an incoming req see
system.mem_ctrls.wrQLenPdf::23                      0                       # What write queue length does an incoming req see
system.mem_ctrls.wrQLenPdf::24                      0                       # What write queue length does an incoming req see
system.mem_ctrls.wrQLenPdf::25                      0                       # What write queue length does an incoming req see
system.mem_ctrls.wrQLenPdf::26                      0                       # What write queue length does an incoming req see
system.mem_ctrls.wrQLenPdf::27                      0                       # What write queue length does an incoming req see
system.mem_ctrls.wrQLenPdf::28                      0                       # What write queue length does an incoming req see
system.mem_ctrls.wrQLenPdf::29                      0                       # What write queue length does an incoming req see
system.mem_ctrls.wrQLenPdf::30                      0                       # What write queue length does an incoming req see
system.mem_ctrls.wrQLenPdf::31                      0                       # What write queue length does an incoming req see
system.mem_ctrls.wrQLenPdf::32                      0                       # What write queue length does an incoming req see
system.mem_ctrls.wrQLenPdf::33                      0                       # What write queue length does an incoming req see
system.mem_ctrls.wrQLenPdf::34                      0                       # What write queue length does an incoming req see
system.mem_ctrls.wrQLenPdf::35                      0                       # What write queue length does an incoming req see
system.mem_ctrls.wrQLenPdf::36                      0                       # What write queue length does an incoming req see
system.mem_ctrls.wrQLenPdf::37                      0                       # What write queue length does an incoming req see
system.mem_ctrls.wrQLenPdf::38                      0                       # What write queue length does an incoming req see
system.mem_ctrls.wrQLenPdf::39                      0                       # What write queue length does an incoming req see
system.mem_ctrls.wrQLenPdf::40                      0                       # What write queue length does an incoming req see
system.mem_ctrls.wrQLenPdf::41                      0                       # What write queue length does an incoming req see
system.mem_ctrls.wrQLenPdf::42                      0                       # What write queue length does an incoming req see
system.mem_ctrls.wrQLenPdf::43                      0                       # What write queue length does an incoming req see
system.mem_ctrls.wrQLenPdf::44                      0                       # What write queue length does an incoming req see
system.mem_ctrls.wrQLenPdf::45                      0                       # What write queue length does an incoming req see
system.mem_ctrls.wrQLenPdf::46                      0                       # What write queue length does an incoming req see
system.mem_ctrls.wrQLenPdf::47                      0                       # What write queue length does an incoming req see
system.mem_ctrls.wrQLenPdf::48                      0                       # What write queue length does an incoming req see
system.mem_ctrls.wrQLenPdf::49                      0                       # What write queue length does an incoming req see
system.mem_ctrls.wrQLenPdf::50                      0                       # What write queue length does an incoming req see
system.mem_ctrls.wrQLenPdf::51                      0                       # What write queue length does an incoming req see
system.mem_ctrls.wrQLenPdf::52                      0                       # What write queue length does an incoming req see
system.mem_ctrls.wrQLenPdf::53                      0                       # What write queue length does an incoming req see
system.mem_ctrls.wrQLenPdf::54                      0                       # What write queue length does an incoming req see
system.mem_ctrls.wrQLenPdf::55                      0                       # What write queue length does an incoming req see
system.mem_ctrls.wrQLenPdf::56                      0                       # What write queue length does an incoming req see
system.mem_ctrls.wrQLenPdf::57                      0                       # What write queue length does an incoming req see
system.mem_ctrls.wrQLenPdf::58                      0                       # What write queue length does an incoming req see
system.mem_ctrls.wrQLenPdf::59                      0                       # What write queue length does an incoming req see
system.mem_ctrls.wrQLenPdf::60                      0                       # What write queue length does an incoming req see
system.mem_ctrls.wrQLenPdf::61                      0                       # What write queue length does an incoming req see
system.mem_ctrls.wrQLenPdf::62                      0                       # What write queue length does an incoming req see
system.mem_ctrls.wrQLenPdf::63                      0                       # What write queue length does an incoming req see
system.mem_ctrls.bytesPerActivate::samples          378                       # Bytes accessed per row activation
system.mem_ctrls.bytesPerActivate::mean    417.015873                       # Bytes accessed per row activation
system.mem_ctrls.bytesPerActivate::gmean   223.210627                       # Bytes accessed per row activation
system.mem_ctrls.bytesPerActivate::stdev   409.792061                       # Bytes accessed per row activation
system.mem_ctrls.bytesPerActivate::0-127          144     38.10%     38.10% # Bytes accessed per row activation
system.mem_ctrls.bytesPerActivate::128-255           53     14.02%     52.12% # Bytes accessed per row activation
system.mem_ctrls.bytesPerActivate::256-383           36      9.52%     61.64% # Bytes accessed per row activation
system.mem_ctrls.bytesPerActivate::384-511           13      3.44%     65.08% # Bytes accessed per row activation
system.mem_ctrls.bytesPerActivate::512-639            8      2.12%     67.20% # Bytes accessed per row activation
system.mem_ctrls.bytesPerActivate::640-767            8      2.12%     69.31% # Bytes accessed per row activation
system.mem_ctrls.bytesPerActivate::768-895            9      2.38%     71.69% # Bytes accessed per row activation
system.mem_ctrls.bytesPerActivate::896-1023            7      1.85%     73.54% # Bytes accessed per row activation
system.mem_ctrls.bytesPerActivate::1024-1151          100     26.46%    100.00% # Bytes accessed per row activation
system.mem_ctrls.bytesPerActivate::total          378                       # Bytes accessed per row activation
system.mem_ctrls.totQLat                     24432000                       # Total ticks spent queuing
system.mem_ctrls.totMemAccLat                71119500                       # Total ticks spent from burst creation until serviced by the DRAM
system.mem_ctrls.totBusLat                   12450000                       # Total ticks spent in databus transfers
system.mem_ctrls.avgQLat                      9812.05                       # Average queueing delay per DRAM burst
system.mem_ctrls.avgBusLat                    5000.00                       # Average bus latency per DRAM burst
system.mem_ctrls.avgMemAccLat                28562.05                       # Average memory access latency per DRAM burst
system.mem_ctrls.avgRdBW                      1001.03                       # Average DRAM read bandwidth in MiByte/s
system.mem_ctrls.avgWrBW                         0.00                       # Average achieved write bandwidth in MiByte/s
system.mem_ctrls.avgRdBWSys                   1001.03                       # Average system read bandwidth in MiByte/s
system.mem_ctrls.avgWrBWSys                      0.00                       # Average system write bandwidth in MiByte/s
system.mem_ctrls.peakBW                      12800.00                       # Theoretical peak bandwidth in MiByte/s
system.mem_ctrls.busUtil                         7.82                       # Data bus utilization in percentage
system.mem_ctrls.busUtilRead                     7.82                       # Data bus utilization in percentage for reads
system.mem_ctrls.busUtilWrite                    0.00                       # Data bus utilization in percentage for writes
system.mem_ctrls.avgRdQLen                       1.58                       # Average read queue length when enqueuing
system.mem_ctrls.avgWrQLen                       0.00                       # Average write queue length when enqueuing
system.mem_ctrls.readRowHits                     2102                       # Number of row buffer hits during reads
system.mem_ctrls.writeRowHits                       0                       # Number of row buffer hits during writes
system.mem_ctrls.readRowHitRate                 84.42                       # Row buffer hit rate for reads
system.mem_ctrls.writeRowHitRate                  nan                       # Row buffer hit rate for writes
system.mem_ctrls.avgGap                      63917.87                       # Average gap between requests
system.mem_ctrls.pageHitRate                    84.42                       # Row buffer hit rate, read and write combined
system.mem_ctrls_0.actEnergy                  2094120                       # Energy for activate commands per rank (pJ)
system.mem_ctrls_0.preEnergy                  1142625                       # Energy for precharge commands per rank (pJ)
system.mem_ctrls_0.readEnergy                10639200                       # Energy for read commands per rank (pJ)
system.mem_ctrls_0.writeEnergy                      0                       # Energy for write commands per rank (pJ)
system.mem_ctrls_0.refreshEnergy             10171200                       # Energy for refresh commands per rank (pJ)
system.mem_ctrls_0.actBackEnergy             61463385                       # Energy for active background per rank (pJ)
system.mem_ctrls_0.preBackEnergy             39675750                       # Energy for precharge background per rank (pJ)
system.mem_ctrls_0.totalEnergy              125186280                       # Total energy per rank (pJ)
system.mem_ctrls_0.averagePower            802.553322                       # Core power per rank (mW)
system.mem_ctrls_0.memoryStateTime::IDLE     65748250                       # Time in different power states
system.mem_ctrls_0.memoryStateTime::REF       5200000                       # Time in different power states
system.mem_ctrls_0.memoryStateTime::PRE_PDN            0                       # Time in different power states
system.mem_ctrls_0.memoryStateTime::ACT      85265750                       # Time in different power states
system.mem_ctrls_0.memoryStateTime::ACT_PDN            0                       # Time in different power states
system.mem_ctrls_1.actEnergy                   718200                       # Energy for activate commands per rank (pJ)
system.mem_ctrls_1.preEnergy                   391875                       # Energy for precharge commands per rank (pJ)
system.mem_ctrls_1.readEnergy                 8377200                       # Energy for read commands per rank (pJ)
system.mem_ctrls_1.writeEnergy                      0                       # Energy for write commands per rank (pJ)
system.mem_ctrls_1.refreshEnergy             10171200                       # Energy for refresh commands per rank (pJ)
system.mem_ctrls_1.actBackEnergy             63830880                       # Energy for active background per rank (pJ)
system.mem_ctrls_1.preBackEnergy             37590750                       # Energy for precharge background per rank (pJ)
system.mem_ctrls_1.totalEnergy              121080105                       # Total energy per rank (pJ)
system.mem_ctrls_1.averagePower            776.297587                       # Core power per rank (mW)
system.mem_ctrls_1.memoryStateTime::IDLE     63103750                       # Time in different power states
system.mem_ctrls_1.memoryStateTime::REF       5200000                       # Time in different power states
system.mem_ctrls_1.memoryStateTime::PRE_PDN            0                       # Time in different power states
system.mem_ctrls_1.memoryStateTime::ACT      88824750                       # Time in different power states
system.mem_ctrls_1.memoryStateTime::ACT_PDN            0                       # Time in different power states
system.cpu00.branchPred.lookups                 40546                       # Number of BP lookups
system.cpu00.branchPred.condPredicted           37797                       # Number of conditional branches predicted
system.cpu00.branchPred.condIncorrect            1451                       # Number of conditional branches incorrect
system.cpu00.branchPred.BTBLookups              36932                       # Number of BTB lookups
system.cpu00.branchPred.BTBHits                 33171                       # Number of BTB hits
system.cpu00.branchPred.BTBCorrect                  0                       # Number of correct BTB predictions (this stat may not work properly.
system.cpu00.branchPred.BTBHitPct           89.816419                       # BTB Hit Percentage
system.cpu00.branchPred.usedRAS                  1034                       # Number of times the RAS was used to get a target.
system.cpu00.branchPred.RASInCorrect               17                       # Number of incorrect RAS predictions.
system.cpu_voltage_domain.voltage                   1                       # Voltage in Volts
system.cpu_clk_domain.clock                       500                       # Clock period in ticks
system.cpu00.dstage2_mmu.stage2_tlb.walker.walks            0                       # Table walker walks requested
system.cpu00.dstage2_mmu.stage2_tlb.walker.walkRequestOrigin_Requested::Data            0                       # Table walker requests started/completed, data/inst
system.cpu00.dstage2_mmu.stage2_tlb.walker.walkRequestOrigin_Requested::Inst            0                       # Table walker requests started/completed, data/inst
system.cpu00.dstage2_mmu.stage2_tlb.walker.walkRequestOrigin_Requested::total            0                       # Table walker requests started/completed, data/inst
system.cpu00.dstage2_mmu.stage2_tlb.walker.walkRequestOrigin_Completed::Data            0                       # Table walker requests started/completed, data/inst
system.cpu00.dstage2_mmu.stage2_tlb.walker.walkRequestOrigin_Completed::Inst            0                       # Table walker requests started/completed, data/inst
system.cpu00.dstage2_mmu.stage2_tlb.walker.walkRequestOrigin_Completed::total            0                       # Table walker requests started/completed, data/inst
system.cpu00.dstage2_mmu.stage2_tlb.walker.walkRequestOrigin::total            0                       # Table walker requests started/completed, data/inst
system.cpu00.dstage2_mmu.stage2_tlb.inst_hits            0                       # ITB inst hits
system.cpu00.dstage2_mmu.stage2_tlb.inst_misses            0                       # ITB inst misses
system.cpu00.dstage2_mmu.stage2_tlb.read_hits            0                       # DTB read hits
system.cpu00.dstage2_mmu.stage2_tlb.read_misses            0                       # DTB read misses
system.cpu00.dstage2_mmu.stage2_tlb.write_hits            0                       # DTB write hits
system.cpu00.dstage2_mmu.stage2_tlb.write_misses            0                       # DTB write misses
system.cpu00.dstage2_mmu.stage2_tlb.flush_tlb            0                       # Number of times complete TLB was flushed
system.cpu00.dstage2_mmu.stage2_tlb.flush_tlb_mva            0                       # Number of times TLB was flushed by MVA
system.cpu00.dstage2_mmu.stage2_tlb.flush_tlb_mva_asid            0                       # Number of times TLB was flushed by MVA & ASID
system.cpu00.dstage2_mmu.stage2_tlb.flush_tlb_asid            0                       # Number of times TLB was flushed by ASID
system.cpu00.dstage2_mmu.stage2_tlb.flush_entries            0                       # Number of entries that have been flushed from TLB
system.cpu00.dstage2_mmu.stage2_tlb.align_faults            0                       # Number of TLB faults due to alignment restrictions
system.cpu00.dstage2_mmu.stage2_tlb.prefetch_faults            0                       # Number of TLB faults due to prefetch
system.cpu00.dstage2_mmu.stage2_tlb.domain_faults            0                       # Number of TLB faults due to domain restrictions
system.cpu00.dstage2_mmu.stage2_tlb.perms_faults            0                       # Number of TLB faults due to permissions restrictions
system.cpu00.dstage2_mmu.stage2_tlb.read_accesses            0                       # DTB read accesses
system.cpu00.dstage2_mmu.stage2_tlb.write_accesses            0                       # DTB write accesses
system.cpu00.dstage2_mmu.stage2_tlb.inst_accesses            0                       # ITB inst accesses
system.cpu00.dstage2_mmu.stage2_tlb.hits            0                       # DTB hits
system.cpu00.dstage2_mmu.stage2_tlb.misses            0                       # DTB misses
system.cpu00.dstage2_mmu.stage2_tlb.accesses            0                       # DTB accesses
system.cpu00.dtb.walker.walks                       0                       # Table walker walks requested
system.cpu00.dtb.walker.walkRequestOrigin_Requested::Data            0                       # Table walker requests started/completed, data/inst
system.cpu00.dtb.walker.walkRequestOrigin_Requested::Inst            0                       # Table walker requests started/completed, data/inst
system.cpu00.dtb.walker.walkRequestOrigin_Requested::total            0                       # Table walker requests started/completed, data/inst
system.cpu00.dtb.walker.walkRequestOrigin_Completed::Data            0                       # Table walker requests started/completed, data/inst
system.cpu00.dtb.walker.walkRequestOrigin_Completed::Inst            0                       # Table walker requests started/completed, data/inst
system.cpu00.dtb.walker.walkRequestOrigin_Completed::total            0                       # Table walker requests started/completed, data/inst
system.cpu00.dtb.walker.walkRequestOrigin::total            0                       # Table walker requests started/completed, data/inst
system.cpu00.dtb.inst_hits                          0                       # ITB inst hits
system.cpu00.dtb.inst_misses                        0                       # ITB inst misses
system.cpu00.dtb.read_hits                          0                       # DTB read hits
system.cpu00.dtb.read_misses                        0                       # DTB read misses
system.cpu00.dtb.write_hits                         0                       # DTB write hits
system.cpu00.dtb.write_misses                       0                       # DTB write misses
system.cpu00.dtb.flush_tlb                          0                       # Number of times complete TLB was flushed
system.cpu00.dtb.flush_tlb_mva                      0                       # Number of times TLB was flushed by MVA
system.cpu00.dtb.flush_tlb_mva_asid                 0                       # Number of times TLB was flushed by MVA & ASID
system.cpu00.dtb.flush_tlb_asid                     0                       # Number of times TLB was flushed by ASID
system.cpu00.dtb.flush_entries                      0                       # Number of entries that have been flushed from TLB
system.cpu00.dtb.align_faults                       0                       # Number of TLB faults due to alignment restrictions
system.cpu00.dtb.prefetch_faults                    0                       # Number of TLB faults due to prefetch
system.cpu00.dtb.domain_faults                      0                       # Number of TLB faults due to domain restrictions
system.cpu00.dtb.perms_faults                       0                       # Number of TLB faults due to permissions restrictions
system.cpu00.dtb.read_accesses                      0                       # DTB read accesses
system.cpu00.dtb.write_accesses                     0                       # DTB write accesses
system.cpu00.dtb.inst_accesses                      0                       # ITB inst accesses
system.cpu00.dtb.hits                               0                       # DTB hits
system.cpu00.dtb.misses                             0                       # DTB misses
system.cpu00.dtb.accesses                           0                       # DTB accesses
system.cpu00.istage2_mmu.stage2_tlb.walker.walks            0                       # Table walker walks requested
system.cpu00.istage2_mmu.stage2_tlb.walker.walkRequestOrigin_Requested::Data            0                       # Table walker requests started/completed, data/inst
system.cpu00.istage2_mmu.stage2_tlb.walker.walkRequestOrigin_Requested::Inst            0                       # Table walker requests started/completed, data/inst
system.cpu00.istage2_mmu.stage2_tlb.walker.walkRequestOrigin_Requested::total            0                       # Table walker requests started/completed, data/inst
system.cpu00.istage2_mmu.stage2_tlb.walker.walkRequestOrigin_Completed::Data            0                       # Table walker requests started/completed, data/inst
system.cpu00.istage2_mmu.stage2_tlb.walker.walkRequestOrigin_Completed::Inst            0                       # Table walker requests started/completed, data/inst
system.cpu00.istage2_mmu.stage2_tlb.walker.walkRequestOrigin_Completed::total            0                       # Table walker requests started/completed, data/inst
system.cpu00.istage2_mmu.stage2_tlb.walker.walkRequestOrigin::total            0                       # Table walker requests started/completed, data/inst
system.cpu00.istage2_mmu.stage2_tlb.inst_hits            0                       # ITB inst hits
system.cpu00.istage2_mmu.stage2_tlb.inst_misses            0                       # ITB inst misses
system.cpu00.istage2_mmu.stage2_tlb.read_hits            0                       # DTB read hits
system.cpu00.istage2_mmu.stage2_tlb.read_misses            0                       # DTB read misses
system.cpu00.istage2_mmu.stage2_tlb.write_hits            0                       # DTB write hits
system.cpu00.istage2_mmu.stage2_tlb.write_misses            0                       # DTB write misses
system.cpu00.istage2_mmu.stage2_tlb.flush_tlb            0                       # Number of times complete TLB was flushed
system.cpu00.istage2_mmu.stage2_tlb.flush_tlb_mva            0                       # Number of times TLB was flushed by MVA
system.cpu00.istage2_mmu.stage2_tlb.flush_tlb_mva_asid            0                       # Number of times TLB was flushed by MVA & ASID
system.cpu00.istage2_mmu.stage2_tlb.flush_tlb_asid            0                       # Number of times TLB was flushed by ASID
system.cpu00.istage2_mmu.stage2_tlb.flush_entries            0                       # Number of entries that have been flushed from TLB
system.cpu00.istage2_mmu.stage2_tlb.align_faults            0                       # Number of TLB faults due to alignment restrictions
system.cpu00.istage2_mmu.stage2_tlb.prefetch_faults            0                       # Number of TLB faults due to prefetch
system.cpu00.istage2_mmu.stage2_tlb.domain_faults            0                       # Number of TLB faults due to domain restrictions
system.cpu00.istage2_mmu.stage2_tlb.perms_faults            0                       # Number of TLB faults due to permissions restrictions
system.cpu00.istage2_mmu.stage2_tlb.read_accesses            0                       # DTB read accesses
system.cpu00.istage2_mmu.stage2_tlb.write_accesses            0                       # DTB write accesses
system.cpu00.istage2_mmu.stage2_tlb.inst_accesses            0                       # ITB inst accesses
system.cpu00.istage2_mmu.stage2_tlb.hits            0                       # DTB hits
system.cpu00.istage2_mmu.stage2_tlb.misses            0                       # DTB misses
system.cpu00.istage2_mmu.stage2_tlb.accesses            0                       # DTB accesses
system.cpu00.itb.walker.walks                       0                       # Table walker walks requested
system.cpu00.itb.walker.walkRequestOrigin_Requested::Data            0                       # Table walker requests started/completed, data/inst
system.cpu00.itb.walker.walkRequestOrigin_Requested::Inst            0                       # Table walker requests started/completed, data/inst
system.cpu00.itb.walker.walkRequestOrigin_Requested::total            0                       # Table walker requests started/completed, data/inst
system.cpu00.itb.walker.walkRequestOrigin_Completed::Data            0                       # Table walker requests started/completed, data/inst
system.cpu00.itb.walker.walkRequestOrigin_Completed::Inst            0                       # Table walker requests started/completed, data/inst
system.cpu00.itb.walker.walkRequestOrigin_Completed::total            0                       # Table walker requests started/completed, data/inst
system.cpu00.itb.walker.walkRequestOrigin::total            0                       # Table walker requests started/completed, data/inst
system.cpu00.itb.inst_hits                          0                       # ITB inst hits
system.cpu00.itb.inst_misses                        0                       # ITB inst misses
system.cpu00.itb.read_hits                          0                       # DTB read hits
system.cpu00.itb.read_misses                        0                       # DTB read misses
system.cpu00.itb.write_hits                         0                       # DTB write hits
system.cpu00.itb.write_misses                       0                       # DTB write misses
system.cpu00.itb.flush_tlb                          0                       # Number of times complete TLB was flushed
system.cpu00.itb.flush_tlb_mva                      0                       # Number of times TLB was flushed by MVA
system.cpu00.itb.flush_tlb_mva_asid                 0                       # Number of times TLB was flushed by MVA & ASID
system.cpu00.itb.flush_tlb_asid                     0                       # Number of times TLB was flushed by ASID
system.cpu00.itb.flush_entries                      0                       # Number of entries that have been flushed from TLB
system.cpu00.itb.align_faults                       0                       # Number of TLB faults due to alignment restrictions
system.cpu00.itb.prefetch_faults                    0                       # Number of TLB faults due to prefetch
system.cpu00.itb.domain_faults                      0                       # Number of TLB faults due to domain restrictions
system.cpu00.itb.perms_faults                       0                       # Number of TLB faults due to permissions restrictions
system.cpu00.itb.read_accesses                      0                       # DTB read accesses
system.cpu00.itb.write_accesses                     0                       # DTB write accesses
system.cpu00.itb.inst_accesses                      0                       # ITB inst accesses
system.cpu00.itb.hits                               0                       # DTB hits
system.cpu00.itb.misses                             0                       # DTB misses
system.cpu00.itb.accesses                           0                       # DTB accesses
system.cpu00.workload.num_syscalls                110                       # Number of system calls
system.cpu00.numCycles                         318392                       # number of cpu cycles simulated
system.cpu00.numWorkItemsStarted                    0                       # number of work items this cpu started
system.cpu00.numWorkItemsCompleted                  0                       # number of work items this cpu completed
system.cpu00.fetch.icacheStallCycles            63573                       # Number of cycles fetch is stalled on an Icache miss
system.cpu00.fetch.Insts                       428571                       # Number of instructions fetch has processed
system.cpu00.fetch.Branches                     40546                       # Number of branches that fetch encountered
system.cpu00.fetch.predictedBranches            34205                       # Number of branches that fetch has predicted taken
system.cpu00.fetch.Cycles                      209159                       # Number of cycles fetch has run and was not squashing or blocked
system.cpu00.fetch.SquashCycles                  3073                       # Number of cycles fetch has spent squashing
system.cpu00.fetch.MiscStallCycles                  1                       # Number of cycles fetch has spent waiting on interrupts, or bad addresses, or out of MSHRs
system.cpu00.fetch.PendingTrapStallCycles            4                       # Number of stall cycles due to pending traps
system.cpu00.fetch.CacheLines                   49156                       # Number of cache lines fetched
system.cpu00.fetch.IcacheSquashes                 815                       # Number of outstanding Icache misses that were squashed
system.cpu00.fetch.rateDist::samples           274273                       # Number of instructions fetched each cycle (Total)
system.cpu00.fetch.rateDist::mean            1.683177                       # Number of instructions fetched each cycle (Total)
system.cpu00.fetch.rateDist::stdev           3.020160                       # Number of instructions fetched each cycle (Total)
system.cpu00.fetch.rateDist::underflows             0      0.00%      0.00% # Number of instructions fetched each cycle (Total)
system.cpu00.fetch.rateDist::0                 201584     73.50%     73.50% # Number of instructions fetched each cycle (Total)
system.cpu00.fetch.rateDist::1                   3241      1.18%     74.68% # Number of instructions fetched each cycle (Total)
system.cpu00.fetch.rateDist::2                   5726      2.09%     76.77% # Number of instructions fetched each cycle (Total)
system.cpu00.fetch.rateDist::3                   1346      0.49%     77.26% # Number of instructions fetched each cycle (Total)
system.cpu00.fetch.rateDist::4                   6031      2.20%     79.46% # Number of instructions fetched each cycle (Total)
system.cpu00.fetch.rateDist::5                   1089      0.40%     79.85% # Number of instructions fetched each cycle (Total)
system.cpu00.fetch.rateDist::6                   5440      1.98%     81.84% # Number of instructions fetched each cycle (Total)
system.cpu00.fetch.rateDist::7                  17818      6.50%     88.33% # Number of instructions fetched each cycle (Total)
system.cpu00.fetch.rateDist::8                  31998     11.67%    100.00% # Number of instructions fetched each cycle (Total)
system.cpu00.fetch.rateDist::overflows              0      0.00%    100.00% # Number of instructions fetched each cycle (Total)
system.cpu00.fetch.rateDist::min_value              0                       # Number of instructions fetched each cycle (Total)
system.cpu00.fetch.rateDist::max_value              8                       # Number of instructions fetched each cycle (Total)
system.cpu00.fetch.rateDist::total             274273                       # Number of instructions fetched each cycle (Total)
system.cpu00.fetch.branchRate                0.127346                       # Number of branch fetches per cycle
system.cpu00.fetch.rate                      1.346048                       # Number of inst fetches per cycle
system.cpu00.decode.IdleCycles                  57457                       # Number of cycles decode is idle
system.cpu00.decode.BlockedCycles              151229                       # Number of cycles decode is blocked
system.cpu00.decode.RunCycles                   56180                       # Number of cycles decode is running
system.cpu00.decode.UnblockCycles                8215                       # Number of cycles decode is unblocking
system.cpu00.decode.SquashCycles                 1192                       # Number of cycles decode is squashing
system.cpu00.decode.BranchResolved               1252                       # Number of times decode resolved a branch
system.cpu00.decode.BranchMispred                 355                       # Number of times decode detected a branch misprediction
system.cpu00.decode.DecodedInsts               450732                       # Number of instructions handled by decode
system.cpu00.decode.SquashedInsts                1318                       # Number of squashed instructions handled by decode
system.cpu00.rename.SquashCycles                 1192                       # Number of cycles rename is squashing
system.cpu00.rename.IdleCycles                  61238                       # Number of cycles rename is idle
system.cpu00.rename.BlockCycles                  4296                       # Number of cycles rename is blocking
system.cpu00.rename.serializeStallCycles        13477                       # count of cycles rename stalled for serializing inst
system.cpu00.rename.RunCycles                   60474                       # Number of cycles rename is running
system.cpu00.rename.UnblockCycles              133596                       # Number of cycles rename is unblocking
system.cpu00.rename.RenamedInsts               447158                       # Number of instructions processed by rename
system.cpu00.rename.ROBFullEvents                  12                       # Number of times rename has blocked due to ROB full
system.cpu00.rename.IQFullEvents                 3407                       # Number of times rename has blocked due to IQ full
system.cpu00.rename.LQFullEvents                 3689                       # Number of times rename has blocked due to LQ full
system.cpu00.rename.SQFullEvents               124252                       # Number of times rename has blocked due to SQ full
system.cpu00.rename.RenamedOperands            544127                       # Number of destination operands rename has renamed
system.cpu00.rename.RenameLookups             2225395                       # Number of register rename lookups that rename has made
system.cpu00.rename.int_rename_lookups         721719                       # Number of integer rename lookups
system.cpu00.rename.fp_rename_lookups              22                       # Number of floating rename lookups
system.cpu00.rename.CommittedMaps              509223                       # Number of HB maps that are committed
system.cpu00.rename.UndoneMaps                  34904                       # Number of HB maps that are undone due to squashing
system.cpu00.rename.serializingInsts              147                       # count of serializing insts renamed
system.cpu00.rename.tempSerializingInsts          147                       # count of temporary serializing insts renamed
system.cpu00.rename.skidInsts                   43684                       # count of insts added to the skid buffer
system.cpu00.memDep0.insertedLoads              76652                       # Number of loads inserted to the mem dependence unit.
system.cpu00.memDep0.insertedStores             48154                       # Number of stores inserted to the mem dependence unit.
system.cpu00.memDep0.conflictingLoads            1045                       # Number of conflicting loads.
system.cpu00.memDep0.conflictingStores            512                       # Number of conflicting stores.
system.cpu00.iq.iqInstsAdded                   441150                       # Number of instructions added to the IQ (excludes non-spec)
system.cpu00.iq.iqNonSpecInstsAdded               284                       # Number of non-speculative instructions added to the IQ
system.cpu00.iq.iqInstsIssued                  427602                       # Number of instructions issued
system.cpu00.iq.iqSquashedInstsIssued             857                       # Number of squashed instructions issued
system.cpu00.iq.iqSquashedInstsExamined         24396                       # Number of squashed instructions iterated over during squash; mainly for profiling
system.cpu00.iq.iqSquashedOperandsExamined        77086                       # Number of squashed operands that are examined and possibly removed from graph
system.cpu00.iq.iqSquashedNonSpecRemoved           72                       # Number of squashed non-spec instructions that were removed
system.cpu00.iq.issued_per_cycle::samples       274273                       # Number of insts issued each cycle
system.cpu00.iq.issued_per_cycle::mean       1.559038                       # Number of insts issued each cycle
system.cpu00.iq.issued_per_cycle::stdev      1.820484                       # Number of insts issued each cycle
system.cpu00.iq.issued_per_cycle::underflows            0      0.00%      0.00% # Number of insts issued each cycle
system.cpu00.iq.issued_per_cycle::0            146838     53.54%     53.54% # Number of insts issued each cycle
system.cpu00.iq.issued_per_cycle::1             15497      5.65%     59.19% # Number of insts issued each cycle
system.cpu00.iq.issued_per_cycle::2              9327      3.40%     62.59% # Number of insts issued each cycle
system.cpu00.iq.issued_per_cycle::3             16993      6.20%     68.78% # Number of insts issued each cycle
system.cpu00.iq.issued_per_cycle::4             85618     31.22%    100.00% # Number of insts issued each cycle
system.cpu00.iq.issued_per_cycle::overflows            0      0.00%    100.00% # Number of insts issued each cycle
system.cpu00.iq.issued_per_cycle::min_value            0                       # Number of insts issued each cycle
system.cpu00.iq.issued_per_cycle::max_value            4                       # Number of insts issued each cycle
system.cpu00.iq.issued_per_cycle::total        274273                       # Number of insts issued each cycle
system.cpu00.iq.fu_full::No_OpClass                 0      0.00%      0.00% # attempts to use FU when none available
system.cpu00.iq.fu_full::IntAlu                     0      0.00%      0.00% # attempts to use FU when none available
system.cpu00.iq.fu_full::IntMult                 1459    100.00%    100.00% # attempts to use FU when none available
system.cpu00.iq.fu_full::IntDiv                     0      0.00%    100.00% # attempts to use FU when none available
system.cpu00.iq.fu_full::FloatAdd                   0      0.00%    100.00% # attempts to use FU when none available
system.cpu00.iq.fu_full::FloatCmp                   0      0.00%    100.00% # attempts to use FU when none available
system.cpu00.iq.fu_full::FloatCvt                   0      0.00%    100.00% # attempts to use FU when none available
system.cpu00.iq.fu_full::FloatMult                  0      0.00%    100.00% # attempts to use FU when none available
system.cpu00.iq.fu_full::FloatDiv                   0      0.00%    100.00% # attempts to use FU when none available
system.cpu00.iq.fu_full::FloatSqrt                  0      0.00%    100.00% # attempts to use FU when none available
system.cpu00.iq.fu_full::SimdAdd                    0      0.00%    100.00% # attempts to use FU when none available
system.cpu00.iq.fu_full::SimdAddAcc                 0      0.00%    100.00% # attempts to use FU when none available
system.cpu00.iq.fu_full::SimdAlu                    0      0.00%    100.00% # attempts to use FU when none available
system.cpu00.iq.fu_full::SimdCmp                    0      0.00%    100.00% # attempts to use FU when none available
system.cpu00.iq.fu_full::SimdCvt                    0      0.00%    100.00% # attempts to use FU when none available
system.cpu00.iq.fu_full::SimdMisc                   0      0.00%    100.00% # attempts to use FU when none available
system.cpu00.iq.fu_full::SimdMult                   0      0.00%    100.00% # attempts to use FU when none available
system.cpu00.iq.fu_full::SimdMultAcc                0      0.00%    100.00% # attempts to use FU when none available
system.cpu00.iq.fu_full::SimdShift                  0      0.00%    100.00% # attempts to use FU when none available
system.cpu00.iq.fu_full::SimdShiftAcc               0      0.00%    100.00% # attempts to use FU when none available
system.cpu00.iq.fu_full::SimdSqrt                   0      0.00%    100.00% # attempts to use FU when none available
system.cpu00.iq.fu_full::SimdFloatAdd               0      0.00%    100.00% # attempts to use FU when none available
system.cpu00.iq.fu_full::SimdFloatAlu               0      0.00%    100.00% # attempts to use FU when none available
system.cpu00.iq.fu_full::SimdFloatCmp               0      0.00%    100.00% # attempts to use FU when none available
system.cpu00.iq.fu_full::SimdFloatCvt               0      0.00%    100.00% # attempts to use FU when none available
system.cpu00.iq.fu_full::SimdFloatDiv               0      0.00%    100.00% # attempts to use FU when none available
system.cpu00.iq.fu_full::SimdFloatMisc              0      0.00%    100.00% # attempts to use FU when none available
system.cpu00.iq.fu_full::SimdFloatMult              0      0.00%    100.00% # attempts to use FU when none available
system.cpu00.iq.fu_full::SimdFloatMultAcc            0      0.00%    100.00% # attempts to use FU when none available
system.cpu00.iq.fu_full::SimdFloatSqrt              0      0.00%    100.00% # attempts to use FU when none available
system.cpu00.iq.fu_full::MemRead                    0      0.00%    100.00% # attempts to use FU when none available
system.cpu00.iq.fu_full::MemWrite                   0      0.00%    100.00% # attempts to use FU when none available
system.cpu00.iq.fu_full::IprAccess                  0      0.00%    100.00% # attempts to use FU when none available
system.cpu00.iq.fu_full::InstPrefetch               0      0.00%    100.00% # attempts to use FU when none available
system.cpu00.iq.FU_type_0::No_OpClass               0      0.00%      0.00% # Type of FU issued
system.cpu00.iq.FU_type_0::IntAlu              248091     58.02%     58.02% # Type of FU issued
system.cpu00.iq.FU_type_0::IntMult              57614     13.47%     71.49% # Type of FU issued
system.cpu00.iq.FU_type_0::IntDiv                   0      0.00%     71.49% # Type of FU issued
system.cpu00.iq.FU_type_0::FloatAdd                 0      0.00%     71.49% # Type of FU issued
system.cpu00.iq.FU_type_0::FloatCmp                 0      0.00%     71.49% # Type of FU issued
system.cpu00.iq.FU_type_0::FloatCvt                 0      0.00%     71.49% # Type of FU issued
system.cpu00.iq.FU_type_0::FloatMult                0      0.00%     71.49% # Type of FU issued
system.cpu00.iq.FU_type_0::FloatDiv                 0      0.00%     71.49% # Type of FU issued
system.cpu00.iq.FU_type_0::FloatSqrt                0      0.00%     71.49% # Type of FU issued
system.cpu00.iq.FU_type_0::SimdAdd                  0      0.00%     71.49% # Type of FU issued
system.cpu00.iq.FU_type_0::SimdAddAcc               0      0.00%     71.49% # Type of FU issued
system.cpu00.iq.FU_type_0::SimdAlu                  0      0.00%     71.49% # Type of FU issued
system.cpu00.iq.FU_type_0::SimdCmp                  0      0.00%     71.49% # Type of FU issued
system.cpu00.iq.FU_type_0::SimdCvt                  0      0.00%     71.49% # Type of FU issued
system.cpu00.iq.FU_type_0::SimdMisc                 0      0.00%     71.49% # Type of FU issued
system.cpu00.iq.FU_type_0::SimdMult                 0      0.00%     71.49% # Type of FU issued
system.cpu00.iq.FU_type_0::SimdMultAcc              0      0.00%     71.49% # Type of FU issued
system.cpu00.iq.FU_type_0::SimdShift                0      0.00%     71.49% # Type of FU issued
system.cpu00.iq.FU_type_0::SimdShiftAcc             0      0.00%     71.49% # Type of FU issued
system.cpu00.iq.FU_type_0::SimdSqrt                 0      0.00%     71.49% # Type of FU issued
system.cpu00.iq.FU_type_0::SimdFloatAdd             0      0.00%     71.49% # Type of FU issued
system.cpu00.iq.FU_type_0::SimdFloatAlu             0      0.00%     71.49% # Type of FU issued
system.cpu00.iq.FU_type_0::SimdFloatCmp             0      0.00%     71.49% # Type of FU issued
system.cpu00.iq.FU_type_0::SimdFloatCvt             0      0.00%     71.49% # Type of FU issued
system.cpu00.iq.FU_type_0::SimdFloatDiv             0      0.00%     71.49% # Type of FU issued
system.cpu00.iq.FU_type_0::SimdFloatMisc            3      0.00%     71.49% # Type of FU issued
system.cpu00.iq.FU_type_0::SimdFloatMult            0      0.00%     71.49% # Type of FU issued
system.cpu00.iq.FU_type_0::SimdFloatMultAcc            0      0.00%     71.49% # Type of FU issued
system.cpu00.iq.FU_type_0::SimdFloatSqrt            0      0.00%     71.49% # Type of FU issued
system.cpu00.iq.FU_type_0::MemRead              75053     17.55%     89.05% # Type of FU issued
system.cpu00.iq.FU_type_0::MemWrite             46841     10.95%    100.00% # Type of FU issued
system.cpu00.iq.FU_type_0::IprAccess                0      0.00%    100.00% # Type of FU issued
system.cpu00.iq.FU_type_0::InstPrefetch             0      0.00%    100.00% # Type of FU issued
system.cpu00.iq.FU_type_0::total               427602                       # Type of FU issued
system.cpu00.iq.rate                         1.343005                       # Inst issue rate
system.cpu00.iq.fu_busy_cnt                      1459                       # FU busy when requested
system.cpu00.iq.fu_busy_rate                 0.003412                       # FU busy rate (busy events/executed inst)
system.cpu00.iq.int_inst_queue_reads          1131737                       # Number of integer instruction queue reads
system.cpu00.iq.int_inst_queue_writes          465868                       # Number of integer instruction queue writes
system.cpu00.iq.int_inst_queue_wakeup_accesses       424441                       # Number of integer instruction queue wakeup accesses
system.cpu00.iq.fp_inst_queue_reads                56                       # Number of floating instruction queue reads
system.cpu00.iq.fp_inst_queue_writes               28                       # Number of floating instruction queue writes
system.cpu00.iq.fp_inst_queue_wakeup_accesses           28                       # Number of floating instruction queue wakeup accesses
system.cpu00.iq.int_alu_accesses               429033                       # Number of integer alu accesses
system.cpu00.iq.fp_alu_accesses                    28                       # Number of floating point alu accesses
system.cpu00.iew.lsq.thread0.forwLoads            129                       # Number of loads that had data forwarded from stores
[...]
system.tol2bus.pkt_count_system.cpu06.dcache.mem_side::system.l2.cpu_side         1895                       # Packet count per connected master and slave (bytes)
system.tol2bus.pkt_count_system.cpu07.icache.mem_side::system.l2.cpu_side          110                       # Packet count per connected master and slave (bytes)
system.tol2bus.pkt_count_system.cpu07.dcache.mem_side::system.l2.cpu_side         1887                       # Packet count per connected master and slave (bytes)
system.tol2bus.pkt_count_system.cpu08.icache.mem_side::system.l2.cpu_side          108                       # Packet count per connected master and slave (bytes)
system.tol2bus.pkt_count_system.cpu08.dcache.mem_side::system.l2.cpu_side         1911                       # Packet count per connected master and slave (bytes)
system.tol2bus.pkt_count_system.cpu09.icache.mem_side::system.l2.cpu_side          112                       # Packet count per connected master and slave (bytes)
system.tol2bus.pkt_count_system.cpu09.dcache.mem_side::system.l2.cpu_side         1858                       # Packet count per connected master and slave (bytes)
system.tol2bus.pkt_count_system.cpu10.icache.mem_side::system.l2.cpu_side          108                       # Packet count per connected master and slave (bytes)
system.tol2bus.pkt_count_system.cpu10.dcache.mem_side::system.l2.cpu_side         1974                       # Packet count per connected master and slave (bytes)
system.tol2bus.pkt_count_system.cpu11.icache.mem_side::system.l2.cpu_side          110                       # Packet count per connected master and slave (bytes)
system.tol2bus.pkt_count_system.cpu11.dcache.mem_side::system.l2.cpu_side         1946                       # Packet count per connected master and slave (bytes)
system.tol2bus.pkt_count_system.cpu12.icache.mem_side::system.l2.cpu_side          110                       # Packet count per connected master and slave (bytes)
system.tol2bus.pkt_count_system.cpu12.dcache.mem_side::system.l2.cpu_side         1811                       # Packet count per connected master and slave (bytes)
system.tol2bus.pkt_count_system.cpu13.icache.mem_side::system.l2.cpu_side          110                       # Packet count per connected master and slave (bytes)
system.tol2bus.pkt_count_system.cpu13.dcache.mem_side::system.l2.cpu_side         1839                       # Packet count per connected master and slave (bytes)
system.tol2bus.pkt_count_system.cpu14.icache.mem_side::system.l2.cpu_side          110                       # Packet count per connected master and slave (bytes)
system.tol2bus.pkt_count_system.cpu14.dcache.mem_side::system.l2.cpu_side         1838                       # Packet count per connected master and slave (bytes)
system.tol2bus.pkt_count_system.cpu15.icache.mem_side::system.l2.cpu_side          104                       # Packet count per connected master and slave (bytes)
system.tol2bus.pkt_count_system.cpu15.dcache.mem_side::system.l2.cpu_side         1838                       # Packet count per connected master and slave (bytes)
system.tol2bus.pkt_count::total                 40391                       # Packet count per connected master and slave (bytes)
system.tol2bus.pkt_size_system.cpu00.icache.mem_side::system.l2.cpu_side        41728                       # Cumulative packet size per connected master and slave (bytes)
system.tol2bus.pkt_size_system.cpu00.dcache.mem_side::system.l2.cpu_side       372096                       # Cumulative packet size per connected master and slave (bytes)
system.tol2bus.pkt_size_system.cpu01.icache.mem_side::system.l2.cpu_side         3648                       # Cumulative packet size per connected master and slave (bytes)
system.tol2bus.pkt_size_system.cpu01.dcache.mem_side::system.l2.cpu_side        36032                       # Cumulative packet size per connected master and slave (bytes)
system.tol2bus.pkt_size_system.cpu02.icache.mem_side::system.l2.cpu_side         3456                       # Cumulative packet size per connected master and slave (bytes)
system.tol2bus.pkt_size_system.cpu02.dcache.mem_side::system.l2.cpu_side        37824                       # Cumulative packet size per connected master and slave (bytes)
system.tol2bus.pkt_size_system.cpu03.icache.mem_side::system.l2.cpu_side         3456                       # Cumulative packet size per connected master and slave (bytes)
system.tol2bus.pkt_size_system.cpu03.dcache.mem_side::system.l2.cpu_side        35648                       # Cumulative packet size per connected master and slave (bytes)
system.tol2bus.pkt_size_system.cpu04.icache.mem_side::system.l2.cpu_side         3456                       # Cumulative packet size per connected master and slave (bytes)
system.tol2bus.pkt_size_system.cpu04.dcache.mem_side::system.l2.cpu_side        34176                       # Cumulative packet size per connected master and slave (bytes)
system.tol2bus.pkt_size_system.cpu05.icache.mem_side::system.l2.cpu_side         3648                       # Cumulative packet size per connected master and slave (bytes)
system.tol2bus.pkt_size_system.cpu05.dcache.mem_side::system.l2.cpu_side        35328                       # Cumulative packet size per connected master and slave (bytes)
system.tol2bus.pkt_size_system.cpu06.icache.mem_side::system.l2.cpu_side         3712                       # Cumulative packet size per connected master and slave (bytes)
system.tol2bus.pkt_size_system.cpu06.dcache.mem_side::system.l2.cpu_side        36416                       # Cumulative packet size per connected master and slave (bytes)
system.tol2bus.pkt_size_system.cpu07.icache.mem_side::system.l2.cpu_side         3520                       # Cumulative packet size per connected master and slave (bytes)
system.tol2bus.pkt_size_system.cpu07.dcache.mem_side::system.l2.cpu_side        37312                       # Cumulative packet size per connected master and slave (bytes)
system.tol2bus.pkt_size_system.cpu08.icache.mem_side::system.l2.cpu_side         3456                       # Cumulative packet size per connected master and slave (bytes)
system.tol2bus.pkt_size_system.cpu08.dcache.mem_side::system.l2.cpu_side        39168                       # Cumulative packet size per connected master and slave (bytes)
system.tol2bus.pkt_size_system.cpu09.icache.mem_side::system.l2.cpu_side         3584                       # Cumulative packet size per connected master and slave (bytes)
system.tol2bus.pkt_size_system.cpu09.dcache.mem_side::system.l2.cpu_side        36096                       # Cumulative packet size per connected master and slave (bytes)
system.tol2bus.pkt_size_system.cpu10.icache.mem_side::system.l2.cpu_side         3456                       # Cumulative packet size per connected master and slave (bytes)
system.tol2bus.pkt_size_system.cpu10.dcache.mem_side::system.l2.cpu_side        43904                       # Cumulative packet size per connected master and slave (bytes)
system.tol2bus.pkt_size_system.cpu11.icache.mem_side::system.l2.cpu_side         3520                       # Cumulative packet size per connected master and slave (bytes)
system.tol2bus.pkt_size_system.cpu11.dcache.mem_side::system.l2.cpu_side        43072                       # Cumulative packet size per connected master and slave (bytes)
system.tol2bus.pkt_size_system.cpu12.icache.mem_side::system.l2.cpu_side         3520                       # Cumulative packet size per connected master and slave (bytes)
system.tol2bus.pkt_size_system.cpu12.dcache.mem_side::system.l2.cpu_side        33728                       # Cumulative packet size per connected master and slave (bytes)
system.tol2bus.pkt_size_system.cpu13.icache.mem_side::system.l2.cpu_side         3520                       # Cumulative packet size per connected master and slave (bytes)
system.tol2bus.pkt_size_system.cpu13.dcache.mem_side::system.l2.cpu_side        35712                       # Cumulative packet size per connected master and slave (bytes)
system.tol2bus.pkt_size_system.cpu14.icache.mem_side::system.l2.cpu_side         3520                       # Cumulative packet size per connected master and slave (bytes)
system.tol2bus.pkt_size_system.cpu14.dcache.mem_side::system.l2.cpu_side        35008                       # Cumulative packet size per connected master and slave (bytes)
system.tol2bus.pkt_size_system.cpu15.icache.mem_side::system.l2.cpu_side         3328                       # Cumulative packet size per connected master and slave (bytes)
system.tol2bus.pkt_size_system.cpu15.dcache.mem_side::system.l2.cpu_side        35520                       # Cumulative packet size per connected master and slave (bytes)
system.tol2bus.pkt_size::total                1021568                       # Cumulative packet size per connected master and slave (bytes)
system.tol2bus.snoops                           14797                       # Total snoops (count)
system.tol2bus.snoop_fanout::samples            30805                       # Request fanout histogram
system.tol2bus.snoop_fanout::mean                  31                       # Request fanout histogram
system.tol2bus.snoop_fanout::stdev                  0                       # Request fanout histogram
system.tol2bus.snoop_fanout::underflows             0      0.00%      0.00% # Request fanout histogram
system.tol2bus.snoop_fanout::0                      0      0.00%      0.00% # Request fanout histogram
system.tol2bus.snoop_fanout::1                      0      0.00%      0.00% # Request fanout histogram
system.tol2bus.snoop_fanout::2                      0      0.00%      0.00% # Request fanout histogram
system.tol2bus.snoop_fanout::3                      0      0.00%      0.00% # Request fanout histogram
system.tol2bus.snoop_fanout::4                      0      0.00%      0.00% # Request fanout histogram
system.tol2bus.snoop_fanout::5                      0      0.00%      0.00% # Request fanout histogram
system.tol2bus.snoop_fanout::6                      0      0.00%      0.00% # Request fanout histogram
system.tol2bus.snoop_fanout::7                      0      0.00%      0.00% # Request fanout histogram
system.tol2bus.snoop_fanout::8                      0      0.00%      0.00% # Request fanout histogram
system.tol2bus.snoop_fanout::9                      0      0.00%      0.00% # Request fanout histogram
system.tol2bus.snoop_fanout::10                     0      0.00%      0.00% # Request fanout histogram
system.tol2bus.snoop_fanout::11                     0      0.00%      0.00% # Request fanout histogram
system.tol2bus.snoop_fanout::12                     0      0.00%      0.00% # Request fanout histogram
system.tol2bus.snoop_fanout::13                     0      0.00%      0.00% # Request fanout histogram
system.tol2bus.snoop_fanout::14                     0      0.00%      0.00% # Request fanout histogram
system.tol2bus.snoop_fanout::15                     0      0.00%      0.00% # Request fanout histogram
system.tol2bus.snoop_fanout::16                     0      0.00%      0.00% # Request fanout histogram
system.tol2bus.snoop_fanout::17                     0      0.00%      0.00% # Request fanout histogram
system.tol2bus.snoop_fanout::18                     0      0.00%      0.00% # Request fanout histogram
system.tol2bus.snoop_fanout::19                     0      0.00%      0.00% # Request fanout histogram
system.tol2bus.snoop_fanout::20                     0      0.00%      0.00% # Request fanout histogram
system.tol2bus.snoop_fanout::21                     0      0.00%      0.00% # Request fanout histogram
system.tol2bus.snoop_fanout::22                     0      0.00%      0.00% # Request fanout histogram
system.tol2bus.snoop_fanout::23                     0      0.00%      0.00% # Request fanout histogram
system.tol2bus.snoop_fanout::24                     0      0.00%      0.00% # Request fanout histogram
system.tol2bus.snoop_fanout::25                     0      0.00%      0.00% # Request fanout histogram
system.tol2bus.snoop_fanout::26                     0      0.00%      0.00% # Request fanout histogram
system.tol2bus.snoop_fanout::27                     0      0.00%      0.00% # Request fanout histogram
system.tol2bus.snoop_fanout::28                     0      0.00%      0.00% # Request fanout histogram
system.tol2bus.snoop_fanout::29                     0      0.00%      0.00% # Request fanout histogram
system.tol2bus.snoop_fanout::30                     0      0.00%      0.00% # Request fanout histogram
system.tol2bus.snoop_fanout::31                 30805    100.00%    100.00% # Request fanout histogram
system.tol2bus.snoop_fanout::32                     0      0.00%    100.00% # Request fanout histogram
system.tol2bus.snoop_fanout::overflows              0      0.00%    100.00% # Request fanout histogram
system.tol2bus.snoop_fanout::min_value             31                       # Request fanout histogram
system.tol2bus.snoop_fanout::max_value             31                       # Request fanout histogram
system.tol2bus.snoop_fanout::total              30805                       # Request fanout histogram
system.tol2bus.reqLayer0.occupancy           21807991                       # Layer occupancy (ticks)
system.tol2bus.reqLayer0.utilization             13.7                       # Layer utilization (%)
system.tol2bus.respLayer0.occupancy           1082204                       # Layer occupancy (ticks)
system.tol2bus.respLayer0.utilization             0.7                       # Layer utilization (%)
system.tol2bus.respLayer1.occupancy           5760745                       # Layer occupancy (ticks)
system.tol2bus.respLayer1.utilization             3.6                       # Layer utilization (%)
system.tol2bus.respLayer4.occupancy             95674                       # Layer occupancy (ticks)
system.tol2bus.respLayer4.utilization             0.1                       # Layer utilization (%)
system.tol2bus.respLayer5.occupancy           1752715                       # Layer occupancy (ticks)
system.tol2bus.respLayer5.utilization             1.1                       # Layer utilization (%)
system.tol2bus.respLayer8.occupancy             89166                       # Layer occupancy (ticks)
system.tol2bus.respLayer8.utilization             0.1                       # Layer utilization (%)
system.tol2bus.respLayer9.occupancy           1988440                       # Layer occupancy (ticks)
system.tol2bus.respLayer9.utilization             1.2                       # Layer utilization (%)
system.tol2bus.respLayer12.occupancy            89921                       # Layer occupancy (ticks)
system.tol2bus.respLayer12.utilization            0.1                       # Layer utilization (%)
system.tol2bus.respLayer13.occupancy          1950449                       # Layer occupancy (ticks)
system.tol2bus.respLayer13.utilization            1.2                       # Layer utilization (%)
system.tol2bus.respLayer16.occupancy            86926                       # Layer occupancy (ticks)
system.tol2bus.respLayer16.utilization            0.1                       # Layer utilization (%)
system.tol2bus.respLayer17.occupancy          1965686                       # Layer occupancy (ticks)
system.tol2bus.respLayer17.utilization            1.2                       # Layer utilization (%)
system.tol2bus.respLayer20.occupancy            90202                       # Layer occupancy (ticks)
system.tol2bus.respLayer20.utilization            0.1                       # Layer utilization (%)
system.tol2bus.respLayer21.occupancy          1989438                       # Layer occupancy (ticks)
system.tol2bus.respLayer21.utilization            1.2                       # Layer utilization (%)
system.tol2bus.respLayer24.occupancy            92694                       # Layer occupancy (ticks)
system.tol2bus.respLayer24.utilization            0.1                       # Layer utilization (%)
system.tol2bus.respLayer25.occupancy          2011432                       # Layer occupancy (ticks)
system.tol2bus.respLayer25.utilization            1.3                       # Layer utilization (%)
system.tol2bus.respLayer28.occupancy            85958                       # Layer occupancy (ticks)
system.tol2bus.respLayer28.utilization            0.1                       # Layer utilization (%)
system.tol2bus.respLayer29.occupancy          1965455                       # Layer occupancy (ticks)
system.tol2bus.respLayer29.utilization            1.2                       # Layer utilization (%)
system.tol2bus.respLayer32.occupancy            84695                       # Layer occupancy (ticks)
system.tol2bus.respLayer32.utilization            0.1                       # Layer utilization (%)
system.tol2bus.respLayer33.occupancy          1967182                       # Layer occupancy (ticks)
system.tol2bus.respLayer33.utilization            1.2                       # Layer utilization (%)
system.tol2bus.respLayer36.occupancy            88953                       # Layer occupancy (ticks)
system.tol2bus.respLayer36.utilization            0.1                       # Layer utilization (%)
system.tol2bus.respLayer37.occupancy          1955942                       # Layer occupancy (ticks)
system.tol2bus.respLayer37.utilization            1.2                       # Layer utilization (%)
system.tol2bus.respLayer40.occupancy            84445                       # Layer occupancy (ticks)
system.tol2bus.respLayer40.utilization            0.1                       # Layer utilization (%)
system.tol2bus.respLayer41.occupancy          1946200                       # Layer occupancy (ticks)
system.tol2bus.respLayer41.utilization            1.2                       # Layer utilization (%)
system.tol2bus.respLayer44.occupancy            85973                       # Layer occupancy (ticks)
system.tol2bus.respLayer44.utilization            0.1                       # Layer utilization (%)
system.tol2bus.respLayer45.occupancy          1911234                       # Layer occupancy (ticks)
system.tol2bus.respLayer45.utilization            1.2                       # Layer utilization (%)
system.tol2bus.respLayer48.occupancy            85489                       # Layer occupancy (ticks)
system.tol2bus.respLayer48.utilization            0.1                       # Layer utilization (%)
system.tol2bus.respLayer49.occupancy          1937705                       # Layer occupancy (ticks)
system.tol2bus.respLayer49.utilization            1.2                       # Layer utilization (%)
system.tol2bus.respLayer52.occupancy            85225                       # Layer occupancy (ticks)
system.tol2bus.respLayer52.utilization            0.1                       # Layer utilization (%)
system.tol2bus.respLayer53.occupancy          1929712                       # Layer occupancy (ticks)
system.tol2bus.respLayer53.utilization            1.2                       # Layer utilization (%)
system.tol2bus.respLayer56.occupancy            86201                       # Layer occupancy (ticks)
system.tol2bus.respLayer56.utilization            0.1                       # Layer utilization (%)
system.tol2bus.respLayer57.occupancy          1959435                       # Layer occupancy (ticks)
system.tol2bus.respLayer57.utilization            1.2                       # Layer utilization (%)
system.tol2bus.respLayer60.occupancy            79238                       # Layer occupancy (ticks)
system.tol2bus.respLayer60.utilization            0.0                       # Layer utilization (%)
system.tol2bus.respLayer61.occupancy          1931719                       # Layer occupancy (ticks)
system.tol2bus.respLayer61.utilization            1.2                       # Layer utilization (%)

---------- End Simulation Statistics   ----------
