
---------- Begin Simulation Statistics ----------
sim_seconds                                  0.000401                       # Number of seconds simulated
sim_ticks                                   400796500                       # Number of ticks simulated
final_tick                                  400796500                       # Number of ticks from beginning of simulation (restored from checkpoints and never reset)
sim_freq                                 1000000000000                       # Frequency of simulated ticks
host_inst_rate                                 271085                       # Simulator instruction rate (inst/s)
host_op_rate                                   273227                       # Simulator op (including micro ops) rate (op/s)
host_tick_rate                               26113248                       # Simulator tick rate (ticks/s)
host_mem_usage                                 656672                       # Number of bytes of host memory used
host_seconds                                    15.35                       # Real time elapsed on the host
sim_insts                                     4160716                       # Number of instructions simulated
sim_ops                                       4193595                       # Number of ops (including micro ops) simulated
system.voltage_domain.voltage                       1                       # Voltage in Volts
system.clk_domain.clock                          1000                       # Clock period in ticks
system.mem_ctrls.bytes_read::cpu0.inst          35584                       # Number of bytes read from this memory
system.mem_ctrls.bytes_read::cpu0.data         114752                       # Number of bytes read from this memory
system.mem_ctrls.bytes_read::cpu1.inst           1280                       # Number of bytes read from this memory
system.mem_ctrls.bytes_read::cpu1.data            320                       # Number of bytes read from this memory
system.mem_ctrls.bytes_read::total             151936                       # Number of bytes read from this memory
system.mem_ctrls.bytes_inst_read::cpu0.inst        35584                       # Number of instructions bytes read from this memory
system.mem_ctrls.bytes_inst_read::cpu1.inst         1280                       # Number of instructions bytes read from this memory
system.mem_ctrls.bytes_inst_read::total         36864                       # Number of instructions bytes read from this memory
system.mem_ctrls.num_reads::cpu0.inst             556                       # Number of read requests responded to by this memory
system.mem_ctrls.num_reads::cpu0.data            1793                       # Number of read requests responded to by this memory
system.mem_ctrls.num_reads::cpu1.inst              20                       # Number of read requests responded to by this memory
system.mem_ctrls.num_reads::cpu1.data               5                       # Number of read requests responded to by this memory
system.mem_ctrls.num_reads::total                2374                       # Number of read requests responded to by this memory
system.mem_ctrls.bw_read::cpu0.inst          88783210                       # Total read bandwidth from this memory (bytes/s)
system.mem_ctrls.bw_read::cpu0.data         286309885                       # Total read bandwidth from this memory (bytes/s)
system.mem_ctrls.bw_read::cpu1.inst           3193641                       # Total read bandwidth from this memory (bytes/s)
system.mem_ctrls.bw_read::cpu1.data            798410                       # Total read bandwidth from this memory (bytes/s)
system.mem_ctrls.bw_read::total             379085147                       # Total read bandwidth from this memory (bytes/s)
system.mem_ctrls.bw_inst_read::cpu0.inst     88783210                       # Instruction read bandwidth from this memory (bytes/s)
system.mem_ctrls.bw_inst_read::cpu1.inst      3193641                       # Instruction read bandwidth from this memory (bytes/s)
system.mem_ctrls.bw_inst_read::total         91976851                       # Instruction read bandwidth from this memory (bytes/s)
system.mem_ctrls.bw_total::cpu0.inst         88783210                       # Total bandwidth to/from this memory (bytes/s)
system.mem_ctrls.bw_total::cpu0.data        286309885                       # Total bandwidth to/from this memory (bytes/s)
system.mem_ctrls.bw_total::cpu1.inst          3193641                       # Total bandwidth to/from this memory (bytes/s)
system.mem_ctrls.bw_total::cpu1.data           798410                       # Total bandwidth to/from this memory (bytes/s)
system.mem_ctrls.bw_total::total            379085147                       # Total bandwidth to/from this memory (bytes/s)
system.mem_ctrls.readReqs                        2374                       # Number of read requests accepted
system.mem_ctrls.writeReqs                          0                       # Number of write requests accepted
system.mem_ctrls.readBursts                      2374                       # Number of DRAM read bursts, including those serviced by the write queue
system.mem_ctrls.writeBursts                        0                       # Number of DRAM write bursts, including those merged in the write queue
system.mem_ctrls.bytesReadDRAM                 151936                       # Total number of bytes read from DRAM
system.mem_ctrls.bytesReadWrQ                       0                       # Total number of bytes read from write queue
system.mem_ctrls.bytesWritten                       0                       # Total number of bytes written to DRAM
system.mem_ctrls.bytesReadSys                  151936                       # Total read bytes from the system interface side
system.mem_ctrls.bytesWrittenSys                    0                       # Total written bytes from the system interface side
system.mem_ctrls.servicedByWrQ                      0                       # Number of DRAM read bursts serviced by the write queue
system.mem_ctrls.mergedWrBursts                     0                       # Number of DRAM write bursts merged with an existing one
system.mem_ctrls.neitherReadNorWriteReqs           17                       # Number of requests that are neither read nor write
system.mem_ctrls.perBankRdBursts::0               129                       # Per bank write bursts
system.mem_ctrls.perBankRdBursts::1               124                       # Per bank write bursts
system.mem_ctrls.perBankRdBursts::2               144                       # Per bank write bursts
system.mem_ctrls.perBankRdBursts::3               198                       # Per bank write bursts
system.mem_ctrls.perBankRdBursts::4               150                       # Per bank write bursts
system.mem_ctrls.perBankRdBursts::5               150                       # Per bank write bursts
system.mem_ctrls.perBankRdBursts::6               222                       # Per bank write bursts
system.mem_ctrls.perBankRdBursts::7               162                       # Per bank write bursts
system.mem_ctrls.perBankRdBursts::8               142                       # Per bank write bursts
system.mem_ctrls.perBankRdBursts::9               138                       # Per bank write bursts
system.mem_ctrls.perBankRdBursts::10              128                       # Per bank write bursts
system.mem_ctrls.perBankRdBursts::11              142                       # Per bank write bursts
system.mem_ctrls.perBankRdBursts::12              134                       # Per bank write bursts
system.mem_ctrls.perBankRdBursts::13              161                       # Per bank write bursts
system.mem_ctrls.perBankRdBursts::14              166                       # Per bank write bursts
system.mem_ctrls.perBankRdBursts::15               84                       # Per bank write bursts
system.mem_ctrls.perBankWrBursts::0                 0                       # Per bank write bursts
system.mem_ctrls.perBankWrBursts::1                 0                       # Per bank write bursts
system.mem_ctrls.perBankWrBursts::2                 0                       # Per bank write bursts
system.mem_ctrls.perBankWrBursts::3                 0                       # Per bank write bursts
system.mem_ctrls.perBankWrBursts::4                 0                       # Per bank write bursts
system.mem_ctrls.perBankWrBursts::5                 0                       # Per bank write bursts
system.mem_ctrls.perBankWrBursts::6                 0                       # Per bank write bursts
system.mem_ctrls.perBankWrBursts::7                 0                       # Per bank write bursts
system.mem_ctrls.perBankWrBursts::8                 0                       # Per bank write bursts
system.mem_ctrls.perBankWrBursts::9                 0                       # Per bank write bursts
system.mem_ctrls.perBankWrBursts::10                0                       # Per bank write bursts
system.mem_ctrls.perBankWrBursts::11                0                       # Per bank write bursts
system.mem_ctrls.perBankWrBursts::12                0                       # Per bank write bursts
system.mem_ctrls.perBankWrBursts::13                0                       # Per bank write bursts
system.mem_ctrls.perBankWrBursts::14                0                       # Per bank write bursts
system.mem_ctrls.perBankWrBursts::15                0                       # Per bank write bursts
system.mem_ctrls.numRdRetry                         0                       # Number of times read queue was full causing retry
system.mem_ctrls.numWrRetry                         0                       # Number of times write queue was full causing retry
system.mem_ctrls.totGap                     400756500                       # Total gap between requests
system.mem_ctrls.readPktSize::0                     0                       # Read request sizes (log2)
system.mem_ctrls.readPktSize::1                     0                       # Read request sizes (log2)
system.mem_ctrls.readPktSize::2                     0                       # Read request sizes (log2)
system.mem_ctrls.readPktSize::3                     0                       # Read request sizes (log2)
system.mem_ctrls.readPktSize::4                     0                       # Read request sizes (log2)
system.mem_ctrls.readPktSize::5                     0                       # Read request sizes (log2)
system.mem_ctrls.readPktSize::6                  2374                       # Read request sizes (log2)
system.mem_ctrls.writePktSize::0                    0                       # Write request sizes (log2)
system.mem_ctrls.writePktSize::1                    0                       # Write request sizes (log2)
system.mem_ctrls.writePktSize::2                    0                       # Write request sizes (log2)
system.mem_ctrls.writePktSize::3                    0                       # Write request sizes (log2)
system.mem_ctrls.writePktSize::4                    0                       # Write request sizes (log2)
system.mem_ctrls.writePktSize::5                    0                       # Write request sizes (log2)
system.mem_ctrls.writePktSize::6                    0                       # Write request sizes (log2)
system.mem_ctrls.rdQLenPdf::0                    1391                       # What read queue length does an incoming req see
system.mem_ctrls.rdQLenPdf::1                     876                       # What read queue length does an incoming req see
system.mem_ctrls.rdQLenPdf::2                      79                       # What read queue length does an incoming req see
system.mem_ctrls.rdQLenPdf::3                      19                       # What read queue length does an incoming req see
system.mem_ctrls.rdQLenPdf::4                       6                       # What read queue length does an incoming req see
system.mem_ctrls.rdQLenPdf::5                       3                       # What read queue length does an incoming req see
system.mem_ctrls.rdQLenPdf::6                       0                       # What read queue length does an incoming req see
system.mem_ctrls.rdQLenPdf::7                       0                       # What read queue length does an incoming req see
system.mem_ctrls.rdQLenPdf::8                       0                       # What read queue length does an incoming req see
system.mem_ctrls.rdQLenPdf::9                       0                       # What read queue length does an incoming req see
system.mem_ctrls.rdQLenPdf::10                      0                       # What read queue length does an incoming req see
system.mem_ctrls.rdQLenPdf::11                      0                       # What read queue length does an incoming req see
system.mem_ctrls.rdQLenPdf::12                      0                       # What read queue length does an incoming req see
system.mem_ctrls.rdQLenPdf::13                      0                       # What read queue length does an incoming req see
system.mem_ctrls.rdQLenPdf::14                      0                       # What read queue length does an incoming req see
system.mem_ctrls.rdQLenPdf::15                      0                       # What read queue length does an incoming req see
system.mem_ctrls.rdQLenPdf::16                      0                       # What read queue length does an incoming req see
system.mem_ctrls.rdQLenPdf::17                      0                       # What read queue length does an incoming req see
system.mem_ctrls.rdQLenPdf::18                      0                       # What read queue length does an incoming req see
system.mem_ctrls.rdQLenPdf::19                      0                       # What read queue length does an incoming req see
system.mem_ctrls.rdQLenPdf::20                      0                       # What read queue length does an incoming req see
system.mem_ctrls.rdQLenPdf::21                      0                       # What read queue length does an incoming req see
system.mem_ctrls.rdQLenPdf::22                      0                       # What read queue length does an incoming req see
system.mem_ctrls.rdQLenPdf::23                      0                       # What read queue length does an incoming req see
system.mem_ctrls.rdQLenPdf::24                      0                       # What read queue length does an incoming req see
system.mem_ctrls.rdQLenPdf::25                      0                       # What read queue length does an incoming req see
system.mem_ctrls.rdQLenPdf::26                      0                       # What read queue length does an incoming req see
system.mem_ctrls.rdQLenPdf::27                      0                       # What read queue length does an incoming req see
system.mem_ctrls.rdQLenPdf::28                      0                       # What read queue length does an incoming req see
system.mem_ctrls.rdQLenPdf::29                      0                       # What read queue length does an incoming req see
system.mem_ctrls.rdQLenPdf::30                      0                       # What read queue length does an incoming req see
system.mem_ctrls.rdQLenPdf::31                      0                       # What read queue length does an incoming req see
system.mem_ctrls.wrQLenPdf::0                       0                       # What write queue length does an incoming req see
system.mem_ctrls.wrQLenPdf::1                       0                       # What write queue length does an incoming req see
system.mem_ctrls.wrQLenPdf::2                       0                       # What write queue length does an incoming req see
system.mem_ctrls.wrQLenPdf::3                       0                       # What write queue length does an incoming req see
system.mem_ctrls.wrQLenPdf::4                       0                       # What write queue length does an incoming req see
system.mem_ctrls.wrQLenPdf::5                       0                       # What write queue length does an incoming req see
system.mem_ctrls.wrQLenPdf::6                       0                       # What write queue length does an incoming req see
system.mem_ctrls.wrQLenPdf::7                       0                       # What write queue length does an incoming req see
system.mem_ctrls.wrQLenPdf::8                       0                       # What write queue length does an incoming req see
system.mem_ctrls.wrQLenPdf::9                       0                       # What write queue length does an incoming req see
system.mem_ctrls.wrQLenPdf::10                      0                       # What write queue length does an incoming req see
system.mem_ctrls.wrQLenPdf::11                      0                       # What write queue length does an incoming req see
system.mem_ctrls.wrQLenPdf::12                      0                       # What write queue length does an incoming req see
system.mem_ctrls.wrQLenPdf::13                      0                       # What write queue length does an incoming req see
system.mem_ctrls.wrQLenPdf::14                      0                       # What write queue length does an incoming req see
system.mem_ctrls.wrQLenPdf::15                      0                       # What write queue length does an incoming req see
system.mem_ctrls.wrQLenPdf::16                      0                       # What write queue length does an incoming req see
system.mem_ctrls.wrQLenPdf::17                      0                       # What write queue length does an incoming req see
system.mem_ctrls.wrQLenPdf::18                      0                       # What write queue length does an incoming req see
system.mem_ctrls.wrQLenPdf::19                      0                       # What write queue length does an incoming req see
system.mem_ctrls.wrQLenPdf::20                      0                       # What write queue length does an incoming req see
system.mem_ctrls.wrQLenPdf::21                      0                       # What write queue length does an incoming req see
system.mem_ctrls.wrQLenPdf::22                      0                       # What write queue length does an incoming req see
system.mem_ctrls.wrQLenPdf::23                      0                       # What write queue length does an incoming req see
system.mem_ctrls.wrQLenPdf::24                      0                       # What write queue length does an incoming req see
system.mem_ctrls.wrQLenPdf::25                      0                       # What write queue length does an incoming req see
system.mem_ctrls.wrQLenPdf::26                      0                       # What write queue length does an incoming req see
system.mem_ctrls.wrQLenPdf::27                      0                       # What write queue length does an incoming req see
system.mem_ctrls.wrQLenPdf::28                      0                       # What write queue length does an incoming req see
system.mem_ctrls.wrQLenPdf::29                      0                       # What write queue length does an incoming req see
system.mem_ctrls.wrQLenPdf::30                      0                       # What write queue length does an incoming req see
system.mem_ctrls.wrQLenPdf::31                      0                       # What write queue length does an incoming req see
system.mem_ctrls.wrQLenPdf::32                      0                       # What write queue length does an incoming req see
system.mem_ctrls.wrQLenPdf::33                      0                       # What write queue length does an incoming req see
system.mem_ctrls.wrQLenPdf::34                      0                       # What write queue length does an incoming req see
system.mem_ctrls.wrQLenPdf::35                      0                       # What write queue length does an incoming req see
system.mem_ctrls.wrQLenPdf::36                      0                       # What write queue length does an incoming req see
system.mem_ctrls.wrQLenPdf::37                      0                       # What write queue length does an incoming req see
system.mem_ctrls.wrQLenPdf::38                      0                       # What write queue length does an incoming req see
system.mem_ctrls.wrQLenPdf::39                      0                       # What write queue length does an incoming req see
system.mem_ctrls.wrQLenPdf::40                      0                       # What write queue length does an incoming req see
system.mem_ctrls.wrQLenPdf::41                      0                       # What write queue length does an incoming req see
system.mem_ctrls.wrQLenPdf::42                      0                       # What write queue length does an incoming req see
system.mem_ctrls.wrQLenPdf::43                      0                       # What write queue length does an incoming req see
system.mem_ctrls.wrQLenPdf::44                      0                       # What write queue length does an incoming req see
system.mem_ctrls.wrQLenPdf::45                      0                       # What write queue length does an incoming req see
system.mem_ctrls.wrQLenPdf::46                      0                       # What write queue length does an incoming req see
system.mem_ctrls.wrQLenPdf::47                      0                       # What write queue length does an incoming req see
system.mem_ctrls.wrQLenPdf::48                      0                       # What write queue length does an incoming req see
system.mem_ctrls.wrQLenPdf::49                      0                       # What write queue length does an incoming req see
system.mem_ctrls.wrQLenPdf::50                      0                       # What write queue length does an incoming req see
system.mem_ctrls.wrQLenPdf::51                      0                       # What write queue length does an incoming req see
system.mem_ctrls.wrQLenPdf::52                      0                       # What write queue length does an incoming req see
system.mem_ctrls.wrQLenPdf::53                      0                       # What write queue length does an incoming req see
system.mem_ctrls.wrQLenPdf::54                      0                       # What write queue length does an incoming req see
system.mem_ctrls.wrQLenPdf::55                      0                       # What write queue length does an incoming req see
system.mem_ctrls.wrQLenPdf::56                      0                       # What write queue length does an incoming req see
system.mem_ctrls.wrQLenPdf::57                      0                       # What write queue length does an incoming req see
system.mem_ctrls.wrQLenPdf::58                      0                       # What write queue length does an incoming req see
system.mem_ctrls.wrQLenPdf::59                      0                       # What write queue length does an incoming req see
system.mem_ctrls.wrQLenPdf::60                      0                       # What write queue length does an incoming req see
system.mem_ctrls.wrQLenPdf::61                      0                       # What write queue length does an incoming req see
system.mem_ctrls.wrQLenPdf::62                      0                       # What write queue length does an incoming req see
system.mem_ctrls.wrQLenPdf::63                      0                       # What write queue length does an incoming req see
system.mem_ctrls.bytesPerActivate::samples          278                       # Bytes accessed per row activation
system.mem_ctrls.bytesPerActivate::mean    540.546763                       # Bytes accessed per row activation
system.mem_ctrls.bytesPerActivate::gmean   333.746044                       # Bytes accessed per row activation
system.mem_ctrls.bytesPerActivate::stdev   418.894733                       # Bytes accessed per row activation
system.mem_ctrls.bytesPerActivate::0-127           56     20.14%     20.14% # Bytes accessed per row activation
system.mem_ctrls.bytesPerActivate::128-255           51     18.35%     38.49% # Bytes accessed per row activation
system.mem_ctrls.bytesPerActivate::256-383           29     10.43%     48.92% # Bytes accessed per row activation
system.mem_ctrls.bytesPerActivate::384-511            9      3.24%     52.16% # Bytes accessed per row activation
system.mem_ctrls.bytesPerActivate::512-639            7      2.52%     54.68% # Bytes accessed per row activation
system.mem_ctrls.bytesPerActivate::640-767           11      3.96%     58.63% # Bytes accessed per row activation
system.mem_ctrls.bytesPerActivate::768-895            3      1.08%     59.71% # Bytes accessed per row activation
system.mem_ctrls.bytesPerActivate::896-1023            8      2.88%     62.59% # Bytes accessed per row activation
system.mem_ctrls.bytesPerActivate::1024-1151          104     37.41%    100.00% # Bytes accessed per row activation
system.mem_ctrls.bytesPerActivate::total          278                       # Bytes accessed per row activation
system.mem_ctrls.totQLat                     13806250                       # Total ticks spent queuing
system.mem_ctrls.totMemAccLat                58318750                       # Total ticks spent from burst creation until serviced by the DRAM
system.mem_ctrls.totBusLat                   11870000                       # Total ticks spent in databus transfers
system.mem_ctrls.avgQLat                      5815.61                       # Average queueing delay per DRAM burst
system.mem_ctrls.avgBusLat                    5000.00                       # Average bus latency per DRAM burst
system.mem_ctrls.avgMemAccLat                24565.61                       # Average memory access latency per DRAM burst
system.mem_ctrls.avgRdBW                       379.09                       # Average DRAM read bandwidth in MiByte/s
system.mem_ctrls.avgWrBW                         0.00                       # Average achieved write bandwidth in MiByte/s
system.mem_ctrls.avgRdBWSys                    379.09                       # Average system read bandwidth in MiByte/s
system.mem_ctrls.avgWrBWSys                      0.00                       # Average system write bandwidth in MiByte/s
system.mem_ctrls.peakBW                      12800.00                       # Theoretical peak bandwidth in MiByte/s
system.mem_ctrls.busUtil                         2.96                       # Data bus utilization in percentage
system.mem_ctrls.busUtilRead                     2.96                       # Data bus utilization in percentage for reads
system.mem_ctrls.busUtilWrite                    0.00                       # Data bus utilization in percentage for writes
system.mem_ctrls.avgRdQLen                       1.20                       # Average read queue length when enqueuing
system.mem_ctrls.avgWrQLen                       0.00                       # Average write queue length when enqueuing
system.mem_ctrls.readRowHits                     2086                       # Number of row buffer hits during reads
system.mem_ctrls.writeRowHits                       0                       # Number of row buffer hits during writes
system.mem_ctrls.readRowHitRate                 87.87                       # Row buffer hit rate for reads
system.mem_ctrls.writeRowHitRate                  nan                       # Row buffer hit rate for writes
system.mem_ctrls.avgGap                     168810.66                       # Average gap between requests
system.mem_ctrls.pageHitRate                    87.87                       # Row buffer hit rate, read and write combined
system.mem_ctrls_0.actEnergy                  1360800                       # Energy for activate commands per rank (pJ)
system.mem_ctrls_0.preEnergy                   742500                       # Energy for precharge commands per rank (pJ)
system.mem_ctrls_0.readEnergy                 9867000                       # Energy for read commands per rank (pJ)
system.mem_ctrls_0.writeEnergy                      0                       # Energy for write commands per rank (pJ)
system.mem_ctrls_0.refreshEnergy             25936560                       # Energy for refresh commands per rank (pJ)
system.mem_ctrls_0.actBackEnergy             65801655                       # Energy for active background per rank (pJ)
system.mem_ctrls_0.preBackEnergy            180694500                       # Energy for precharge background per rank (pJ)
system.mem_ctrls_0.totalEnergy              284403015                       # Total energy per rank (pJ)
system.mem_ctrls_0.averagePower            715.733616                       # Core power per rank (mW)
system.mem_ctrls_0.memoryStateTime::IDLE    300432500                       # Time in different power states
system.mem_ctrls_0.memoryStateTime::REF      13260000                       # Time in different power states
system.mem_ctrls_0.memoryStateTime::PRE_PDN            0                       # Time in different power states
system.mem_ctrls_0.memoryStateTime::ACT      83975500                       # Time in different power states
system.mem_ctrls_0.memoryStateTime::ACT_PDN            0                       # Time in different power states
system.mem_ctrls_1.actEnergy                   695520                       # Energy for activate commands per rank (pJ)
system.mem_ctrls_1.preEnergy                   379500                       # Energy for precharge commands per rank (pJ)
system.mem_ctrls_1.readEnergy                 8260200                       # Energy for read commands per rank (pJ)
system.mem_ctrls_1.writeEnergy                      0                       # Energy for write commands per rank (pJ)
system.mem_ctrls_1.refreshEnergy             25936560                       # Energy for refresh commands per rank (pJ)
system.mem_ctrls_1.actBackEnergy             64178010                       # Energy for active background per rank (pJ)
system.mem_ctrls_1.preBackEnergy            182110500                       # Energy for precharge background per rank (pJ)
system.mem_ctrls_1.totalEnergy              281560290                       # Total energy per rank (pJ)
system.mem_ctrls_1.averagePower            708.604085                       # Core power per rank (mW)
system.mem_ctrls_1.memoryStateTime::IDLE    303766000                       # Time in different power states
system.mem_ctrls_1.memoryStateTime::REF      13260000                       # Time in different power states
system.mem_ctrls_1.memoryStateTime::PRE_PDN            0                       # Time in different power states
system.mem_ctrls_1.memoryStateTime::ACT      81685500                       # Time in different power states
system.mem_ctrls_1.memoryStateTime::ACT_PDN            0                       # Time in different power states
system.cpu0.branchPred.lookups                 159155                       # Number of BP lookups
system.cpu0.branchPred.condPredicted           156521                       # Number of conditional branches predicted
system.cpu0.branchPred.condIncorrect             3273                       # Number of conditional branches incorrect
system.cpu0.branchPred.BTBLookups              156502                       # Number of BTB lookups
system.cpu0.branchPred.BTBHits                 152813                       # Number of BTB hits
system.cpu0.branchPred.BTBCorrect                   0                       # Number of correct BTB predictions (this stat may not work properly.
system.cpu0.branchPred.BTBHitPct            97.642842                       # BTB Hit Percentage
system.cpu0.branchPred.usedRAS                    977                       # Number of times the RAS was used to get a target.
system.cpu0.branchPred.RASInCorrect                16                       # Number of incorrect RAS predictions.
system.cpu_voltage_domain.voltage                   1                       # Voltage in Volts
system.cpu_clk_domain.clock                       500                       # Clock period in ticks
system.cpu0.dstage2_mmu.stage2_tlb.walker.walks            0                       # Table walker walks requested
system.cpu0.dstage2_mmu.stage2_tlb.walker.walkRequestOrigin_Requested::Data            0                       # Table walker requests started/completed, data/inst
system.cpu0.dstage2_mmu.stage2_tlb.walker.walkRequestOrigin_Requested::Inst            0                       # Table walker requests started/completed, data/inst
system.cpu0.dstage2_mmu.stage2_tlb.walker.walkRequestOrigin_Requested::total            0                       # Table walker requests started/completed, data/inst
system.cpu0.dstage2_mmu.stage2_tlb.walker.walkRequestOrigin_Completed::Data            0                       # Table walker requests started/completed, data/inst
system.cpu0.dstage2_mmu.stage2_tlb.walker.walkRequestOrigin_Completed::Inst            0                       # Table walker requests started/completed, data/inst
system.cpu0.dstage2_mmu.stage2_tlb.walker.walkRequestOrigin_Completed::total            0                       # Table walker requests started/completed, data/inst
system.cpu0.dstage2_mmu.stage2_tlb.walker.walkRequestOrigin::total            0                       # Table walker requests started/completed, data/inst
system.cpu0.dstage2_mmu.stage2_tlb.inst_hits            0                       # ITB inst hits
system.cpu0.dstage2_mmu.stage2_tlb.inst_misses            0                       # ITB inst misses
system.cpu0.dstage2_mmu.stage2_tlb.read_hits            0                       # DTB read hits
system.cpu0.dstage2_mmu.stage2_tlb.read_misses            0                       # DTB read misses
system.cpu0.dstage2_mmu.stage2_tlb.write_hits            0                       # DTB write hits
system.cpu0.dstage2_mmu.stage2_tlb.write_misses            0                       # DTB write misses
system.cpu0.dstage2_mmu.stage2_tlb.flush_tlb            0                       # Number of times complete TLB was flushed
system.cpu0.dstage2_mmu.stage2_tlb.flush_tlb_mva            0                       # Number of times TLB was flushed by MVA
system.cpu0.dstage2_mmu.stage2_tlb.flush_tlb_mva_asid            0                       # Number of times TLB was flushed by MVA & ASID
system.cpu0.dstage2_mmu.stage2_tlb.flush_tlb_asid            0                       # Number of times TLB was flushed by ASID
system.cpu0.dstage2_mmu.stage2_tlb.flush_entries            0                       # Number of entries that have been flushed from TLB
system.cpu0.dstage2_mmu.stage2_tlb.align_faults            0                       # Number of TLB faults due to alignment restrictions
system.cpu0.dstage2_mmu.stage2_tlb.prefetch_faults            0                       # Number of TLB faults due to prefetch
system.cpu0.dstage2_mmu.stage2_tlb.domain_faults            0                       # Number of TLB faults due to domain restrictions
system.cpu0.dstage2_mmu.stage2_tlb.perms_faults            0                       # Number of TLB faults due to permissions restrictions
system.cpu0.dstage2_mmu.stage2_tlb.read_accesses            0                       # DTB read accesses
system.cpu0.dstage2_mmu.stage2_tlb.write_accesses            0                       # DTB write accesses
system.cpu0.dstage2_mmu.stage2_tlb.inst_accesses            0                       # ITB inst accesses
system.cpu0.dstage2_mmu.stage2_tlb.hits             0                       # DTB hits
system.cpu0.dstage2_mmu.stage2_tlb.misses            0                       # DTB misses
system.cpu0.dstage2_mmu.stage2_tlb.accesses            0                       # DTB accesses
system.cpu0.dtb.walker.walks                        0                       # Table walker walks requested
system.cpu0.dtb.walker.walkRequestOrigin_Requested::Data            0                       # Table walker requests started/completed, data/inst
system.cpu0.dtb.walker.walkRequestOrigin_Requested::Inst            0                       # Table walker requests started/completed, data/inst
system.cpu0.dtb.walker.walkRequestOrigin_Requested::total            0                       # Table walker requests started/completed, data/inst
system.cpu0.dtb.walker.walkRequestOrigin_Completed::Data            0                       # Table walker requests started/completed, data/inst
system.cpu0.dtb.walker.walkRequestOrigin_Completed::Inst            0                       # Table walker requests started/completed, data/inst
system.cpu0.dtb.walker.walkRequestOrigin_Completed::total            0                       # Table walker requests started/completed, data/inst
system.cpu0.dtb.walker.walkRequestOrigin::total            0                       # Table walker requests started/completed, data/inst
system.cpu0.dtb.inst_hits                           0                       # ITB inst hits
system.cpu0.dtb.inst_misses                         0                       # ITB inst misses
system.cpu0.dtb.read_hits                           0                       # DTB read hits
system.cpu0.dtb.read_misses                         0                       # DTB read misses
system.cpu0.dtb.write_hits                          0                       # DTB write hits
system.cpu0.dtb.write_misses                        0                       # DTB write misses
system.cpu0.dtb.flush_tlb                           0                       # Number of times complete TLB was flushed
system.cpu0.dtb.flush_tlb_mva                       0                       # Number of times TLB was flushed by MVA
system.cpu0.dtb.flush_tlb_mva_asid                  0                       # Number of times TLB was flushed by MVA & ASID
system.cpu0.dtb.flush_tlb_asid                      0                       # Number of times TLB was flushed by ASID
system.cpu0.dtb.flush_entries                       0                       # Number of entries that have been flushed from TLB
system.cpu0.dtb.align_faults                        0                       # Number of TLB faults due to alignment restrictions
system.cpu0.dtb.prefetch_faults                     0                       # Number of TLB faults due to prefetch
system.cpu0.dtb.domain_faults                       0                       # Number of TLB faults due to domain restrictions
system.cpu0.dtb.perms_faults                        0                       # Number of TLB faults due to permissions restrictions
system.cpu0.dtb.read_accesses                       0                       # DTB read accesses
system.cpu0.dtb.write_accesses                      0                       # DTB write accesses
system.cpu0.dtb.inst_accesses                       0                       # ITB inst accesses
system.cpu0.dtb.hits                                0                       # DTB hits
system.cpu0.dtb.misses                              0                       # DTB misses
system.cpu0.dtb.accesses                            0                       # DTB accesses
system.cpu0.istage2_mmu.stage2_tlb.walker.walks            0                       # Table walker walks requested
system.cpu0.istage2_mmu.stage2_tlb.walker.walkRequestOrigin_Requested::Data            0                       # Table walker requests started/completed, data/inst
system.cpu0.istage2_mmu.stage2_tlb.walker.walkRequestOrigin_Requested::Inst            0                       # Table walker requests started/completed, data/inst
system.cpu0.istage2_mmu.stage2_tlb.walker.walkRequestOrigin_Requested::total            0                       # Table walker requests started/completed, data/inst
system.cpu0.istage2_mmu.stage2_tlb.walker.walkRequestOrigin_Completed::Data            0                       # Table walker requests started/completed, data/inst
system.cpu0.istage2_mmu.stage2_tlb.walker.walkRequestOrigin_Completed::Inst            0                       # Table walker requests started/completed, data/inst
system.cpu0.istage2_mmu.stage2_tlb.walker.walkRequestOrigin_Completed::total            0                       # Table walker requests started/completed, data/inst
system.cpu0.istage2_mmu.stage2_tlb.walker.walkRequestOrigin::total            0                       # Table walker requests started/completed, data/inst
system.cpu0.istage2_mmu.stage2_tlb.inst_hits            0                       # ITB inst hits
system.cpu0.istage2_mmu.stage2_tlb.inst_misses            0                       # ITB inst misses
system.cpu0.istage2_mmu.stage2_tlb.read_hits            0                       # DTB read hits
system.cpu0.istage2_mmu.stage2_tlb.read_misses            0                       # DTB read misses
system.cpu0.istage2_mmu.stage2_tlb.write_hits            0                       # DTB write hits
system.cpu0.istage2_mmu.stage2_tlb.write_misses            0                       # DTB write misses
system.cpu0.istage2_mmu.stage2_tlb.flush_tlb            0                       # Number of times complete TLB was flushed
system.cpu0.istage2_mmu.stage2_tlb.flush_tlb_mva            0                       # Number of times TLB was flushed by MVA
system.cpu0.istage2_mmu.stage2_tlb.flush_tlb_mva_asid            0                       # Number of times TLB was flushed by MVA & ASID
system.cpu0.istage2_mmu.stage2_tlb.flush_tlb_asid            0                       # Number of times TLB was flushed by ASID
system.cpu0.istage2_mmu.stage2_tlb.flush_entries            0                       # Number of entries that have been flushed from TLB
system.cpu0.istage2_mmu.stage2_tlb.align_faults            0                       # Number of TLB faults due to alignment restrictions
system.cpu0.istage2_mmu.stage2_tlb.prefetch_faults            0                       # Number of TLB faults due to prefetch
system.cpu0.istage2_mmu.stage2_tlb.domain_faults            0                       # Number of TLB faults due to domain restrictions
system.cpu0.istage2_mmu.stage2_tlb.perms_faults            0                       # Number of TLB faults due to permissions restrictions
system.cpu0.istage2_mmu.stage2_tlb.read_accesses            0                       # DTB read accesses
system.cpu0.istage2_mmu.stage2_tlb.write_accesses            0                       # DTB write accesses
system.cpu0.istage2_mmu.stage2_tlb.inst_accesses            0                       # ITB inst accesses
system.cpu0.istage2_mmu.stage2_tlb.hits             0                       # DTB hits
system.cpu0.istage2_mmu.stage2_tlb.misses            0                       # DTB misses
system.cpu0.istage2_mmu.stage2_tlb.accesses            0                       # DTB accesses
system.cpu0.itb.walker.walks                        0                       # Table walker walks requested
system.cpu0.itb.walker.walkRequestOrigin_Requested::Data            0                       # Table walker requests started/completed, data/inst
system.cpu0.itb.walker.walkRequestOrigin_Requested::Inst            0                       # Table walker requests started/completed, data/inst
system.cpu0.itb.walker.walkRequestOrigin_Requested::total            0                       # Table walker requests started/completed, data/inst
system.cpu0.itb.walker.walkRequestOrigin_Completed::Data            0                       # Table walker requests started/completed, data/inst
system.cpu0.itb.walker.walkRequestOrigin_Completed::Inst            0                       # Table walker requests started/completed, data/inst
system.cpu0.itb.walker.walkRequestOrigin_Completed::total            0                       # Table walker requests started/completed, data/inst
system.cpu0.itb.walker.walkRequestOrigin::total            0                       # Table walker requests started/completed, data/inst
system.cpu0.itb.inst_hits                           0                       # ITB inst hits
system.cpu0.itb.inst_misses                         0                       # ITB inst misses
system.cpu0.itb.read_hits                           0                       # DTB read hits
system.cpu0.itb.read_misses                         0                       # DTB read misses
system.cpu0.itb.write_hits                          0                       # DTB write hits
system.cpu0.itb.write_misses                        0                       # DTB write misses
system.cpu0.itb.flush_tlb                           0                       # Number of times complete TLB was flushed
system.cpu0.itb.flush_tlb_mva                       0                       # Number of times TLB was flushed by MVA
system.cpu0.itb.flush_tlb_mva_asid                  0                       # Number of times TLB was flushed by MVA & ASID
system.cpu0.itb.flush_tlb_asid                      0                       # Number of times TLB was flushed by ASID
system.cpu0.itb.flush_entries                       0                       # Number of entries that have been flushed from TLB
system.cpu0.itb.align_faults                        0                       # Number of TLB faults due to alignment restrictions
system.cpu0.itb.prefetch_faults                     0                       # Number of TLB faults due to prefetch
system.cpu0.itb.domain_faults                       0                       # Number of TLB faults due to domain restrictions
system.cpu0.itb.perms_faults                        0                       # Number of TLB faults due to permissions restrictions
system.cpu0.itb.read_accesses                       0                       # DTB read accesses
system.cpu0.itb.write_accesses                      0                       # DTB write accesses
system.cpu0.itb.inst_accesses                       0                       # ITB inst accesses
system.cpu0.itb.hits                                0                       # DTB hits
system.cpu0.itb.misses                              0                       # DTB misses
system.cpu0.itb.accesses                            0                       # DTB accesses
system.cpu0.workload.num_syscalls                  24                       # Number of system calls
system.cpu0.numCycles                          801594                       # number of cpu cycles simulated
system.cpu0.numWorkItemsStarted                     0                       # number of work items this cpu started
system.cpu0.numWorkItemsCompleted                   0                       # number of work items this cpu completed
system.cpu0.fetch.icacheStallCycles            305693                       # Number of cycles fetch is stalled on an Icache miss
system.cpu0.fetch.Insts                       2231355                       # Number of instructions fetch has processed
system.cpu0.fetch.Branches                     159155                       # Number of branches that fetch encountered
system.cpu0.fetch.predictedBranches            153790                       # Number of branches that fetch has predicted taken
system.cpu0.fetch.Cycles                       447904                       # Number of cycles fetch has run and was not squashing or blocked
system.cpu0.fetch.SquashCycles                   6671                       # Number of cycles fetch has spent squashing
system.cpu0.fetch.MiscStallCycles                   1                       # Number of cycles fetch has spent waiting on interrupts, or bad addresses, or out of MSHRs
system.cpu0.fetch.PendingTrapStallCycles            4                       # Number of stall cycles due to pending traps
system.cpu0.fetch.CacheLines                   290933                       # Number of cache lines fetched
system.cpu0.fetch.IcacheSquashes                 1489                       # Number of outstanding Icache misses that were squashed
system.cpu0.fetch.rateDist::samples            756937                       # Number of instructions fetched each cycle (Total)
system.cpu0.fetch.rateDist::mean             2.993302                       # Number of instructions fetched each cycle (Total)
system.cpu0.fetch.rateDist::stdev            3.631743                       # Number of instructions fetched each cycle (Total)
system.cpu0.fetch.rateDist::underflows              0      0.00%      0.00% # Number of instructions fetched each cycle (Total)
system.cpu0.fetch.rateDist::0                  438962     57.99%     57.99% # Number of instructions fetched each cycle (Total)
system.cpu0.fetch.rateDist::1                    4889      0.65%     58.64% # Number of instructions fetched each cycle (Total)
system.cpu0.fetch.rateDist::2                    6440      0.85%     59.49% # Number of instructions fetched each cycle (Total)
system.cpu0.fetch.rateDist::3                    1763      0.23%     59.72% # Number of instructions fetched each cycle (Total)
system.cpu0.fetch.rateDist::4                   10912      1.44%     61.16% # Number of instructions fetched each cycle (Total)
system.cpu0.fetch.rateDist::5                    1734      0.23%     61.39% # Number of instructions fetched each cycle (Total)
system.cpu0.fetch.rateDist::6                    5519      0.73%     62.12% # Number of instructions fetched each cycle (Total)
system.cpu0.fetch.rateDist::7                  136493     18.03%     80.15% # Number of instructions fetched each cycle (Total)
system.cpu0.fetch.rateDist::8                  150225     19.85%    100.00% # Number of instructions fetched each cycle (Total)
system.cpu0.fetch.rateDist::overflows               0      0.00%    100.00% # Number of instructions fetched each cycle (Total)
system.cpu0.fetch.rateDist::min_value               0                       # Number of instructions fetched each cycle (Total)
system.cpu0.fetch.rateDist::max_value               8                       # Number of instructions fetched each cycle (Total)
system.cpu0.fetch.rateDist::total              756937                       # Number of instructions fetched each cycle (Total)
system.cpu0.fetch.branchRate                 0.198548                       # Number of branch fetches per cycle
system.cpu0.fetch.rate                       2.783647                       # Number of inst fetches per cycle
system.cpu0.decode.IdleCycles                  268642                       # Number of cycles decode is idle
system.cpu0.decode.BlockedCycles               179540                       # Number of cycles decode is blocked
system.cpu0.decode.RunCycles                   287122                       # Number of cycles decode is running
system.cpu0.decode.UnblockCycles                18644                       # Number of cycles decode is unblocking
system.cpu0.decode.SquashCycles                  2989                       # Number of cycles decode is squashing
system.cpu0.decode.BranchResolved                1210                       # Number of times decode resolved a branch
system.cpu0.decode.BranchMispred                  356                       # Number of times decode detected a branch misprediction
system.cpu0.decode.DecodedInsts               2250356                       # Number of instructions handled by decode
system.cpu0.decode.SquashedInsts                 1358                       # Number of squashed instructions handled by decode
system.cpu0.rename.SquashCycles                  2989                       # Number of cycles rename is squashing
system.cpu0.rename.IdleCycles                  276991                       # Number of cycles rename is idle
system.cpu0.rename.BlockCycles                   9048                       # Number of cycles rename is blocking
system.cpu0.rename.serializeStallCycles          7868                       # count of cycles rename stalled for serializing inst
system.cpu0.rename.RunCycles                   297127                       # Number of cycles rename is running
system.cpu0.rename.UnblockCycles               162914                       # Number of cycles rename is unblocking
system.cpu0.rename.RenamedInsts               2238838                       # Number of instructions processed by rename
system.cpu0.rename.ROBFullEvents                    9                       # Number of times rename has blocked due to ROB full
system.cpu0.rename.IQFullEvents                  7086                       # Number of times rename has blocked due to IQ full
system.cpu0.rename.LQFullEvents                 28117                       # Number of times rename has blocked due to LQ full
system.cpu0.rename.SQFullEvents                122219                       # Number of times rename has blocked due to SQ full
system.cpu0.rename.RenamedOperands            2916715                       # Number of destination operands rename has renamed
system.cpu0.rename.RenameLookups             11065572                       # Number of register rename lookups that rename has made
system.cpu0.rename.int_rename_lookups         3702863                       # Number of integer rename lookups
system.cpu0.rename.fp_rename_lookups               22                       # Number of floating rename lookups
system.cpu0.rename.CommittedMaps              2806568                       # Number of HB maps that are committed
system.cpu0.rename.UndoneMaps                  110147                       # Number of HB maps that are undone due to squashing
system.cpu0.rename.serializingInsts               129                       # count of serializing insts renamed
system.cpu0.rename.tempSerializingInsts           129                       # count of temporary serializing insts renamed
system.cpu0.rename.skidInsts                   108891                       # count of insts added to the skid buffer
system.cpu0.memDep0.insertedLoads              554446                       # Number of loads inserted to the mem dependence unit.
system.cpu0.memDep0.insertedStores              52933                       # Number of stores inserted to the mem dependence unit.
system.cpu0.memDep0.conflictingLoads             4738                       # Number of conflicting loads.
system.cpu0.memDep0.conflictingStores             549                       # Number of conflicting stores.
system.cpu0.iq.iqInstsAdded                   2218886                       # Number of instructions added to the IQ (excludes non-spec)
system.cpu0.iq.iqNonSpecInstsAdded                270                       # Number of non-speculative instructions added to the IQ
system.cpu0.iq.iqInstsIssued                  2175266                       # Number of instructions issued
system.cpu0.iq.iqSquashedInstsIssued             3178                       # Number of squashed instructions issued
system.cpu0.iq.iqSquashedInstsExamined          68211                       # Number of squashed instructions iterated over during squash; mainly for profiling
system.cpu0.iq.iqSquashedOperandsExamined       259601                       # Number of squashed operands that are examined and possibly removed from graph
system.cpu0.iq.iqSquashedNonSpecRemoved            85                       # Number of squashed non-spec instructions that were removed
system.cpu0.iq.issued_per_cycle::samples       756937                       # Number of insts issued each cycle
system.cpu0.iq.issued_per_cycle::mean        2.873774                       # Number of insts issued each cycle
system.cpu0.iq.issued_per_cycle::stdev       1.636979                       # Number of insts issued each cycle
system.cpu0.iq.issued_per_cycle::underflows            0      0.00%      0.00% # Number of insts issued each cycle
system.cpu0.iq.issued_per_cycle::0             152082     20.09%     20.09% # Number of insts issued each cycle
system.cpu0.iq.issued_per_cycle::1              42663      5.64%     25.73% # Number of insts issued each cycle
system.cpu0.iq.issued_per_cycle::2              27503      3.63%     29.36% # Number of insts issued each cycle
system.cpu0.iq.issued_per_cycle::3              61159      8.08%     37.44% # Number of insts issued each cycle
system.cpu0.iq.issued_per_cycle::4             473530     62.56%    100.00% # Number of insts issued each cycle
system.cpu0.iq.issued_per_cycle::overflows            0      0.00%    100.00% # Number of insts issued each cycle
system.cpu0.iq.issued_per_cycle::min_value            0                       # Number of insts issued each cycle
system.cpu0.iq.issued_per_cycle::max_value            4                       # Number of insts issued each cycle
system.cpu0.iq.issued_per_cycle::total         756937                       # Number of insts issued each cycle
system.cpu0.iq.fu_full::No_OpClass                  0      0.00%      0.00% # attempts to use FU when none available
system.cpu0.iq.fu_full::IntAlu                      0      0.00%      0.00% # attempts to use FU when none available
system.cpu0.iq.fu_full::IntMult                  9184    100.00%    100.00% # attempts to use FU when none available
system.cpu0.iq.fu_full::IntDiv                      0      0.00%    100.00% # attempts to use FU when none available
system.cpu0.iq.fu_full::FloatAdd                    0      0.00%    100.00% # attempts to use FU when none available
system.cpu0.iq.fu_full::FloatCmp                    0      0.00%    100.00% # attempts to use FU when none available
system.cpu0.iq.fu_full::FloatCvt                    0      0.00%    100.00% # attempts to use FU when none available
system.cpu0.iq.fu_full::FloatMult                   0      0.00%    100.00% # attempts to use FU when none available
system.cpu0.iq.fu_full::FloatDiv                    0      0.00%    100.00% # attempts to use FU when none available
system.cpu0.iq.fu_full::FloatSqrt                   0      0.00%    100.00% # attempts to use FU when none available
system.cpu0.iq.fu_full::SimdAdd                     0      0.00%    100.00% # attempts to use FU when none available
system.cpu0.iq.fu_full::SimdAddAcc                  0      0.00%    100.00% # attempts to use FU when none available
system.cpu0.iq.fu_full::SimdAlu                     0      0.00%    100.00% # attempts to use FU when none available
system.cpu0.iq.fu_full::SimdCmp                     0      0.00%    100.00% # attempts to use FU when none available
system.cpu0.iq.fu_full::SimdCvt                     0      0.00%    100.00% # attempts to use FU when none available
system.cpu0.iq.fu_full::SimdMisc                    0      0.00%    100.00% # attempts to use FU when none available
system.cpu0.iq.fu_full::SimdMult                    0      0.00%    100.00% # attempts to use FU when none available
system.cpu0.iq.fu_full::SimdMultAcc                 0      0.00%    100.00% # attempts to use FU when none available
system.cpu0.iq.fu_full::SimdShift                   0      0.00%    100.00% # attempts to use FU when none available
system.cpu0.iq.fu_full::SimdShiftAcc                0      0.00%    100.00% # attempts to use FU when none available
system.cpu0.iq.fu_full::SimdSqrt                    0      0.00%    100.00% # attempts to use FU when none available
system.cpu0.iq.fu_full::SimdFloatAdd                0      0.00%    100.00% # attempts to use FU when none available
system.cpu0.iq.fu_full::SimdFloatAlu                0      0.00%    100.00% # attempts to use FU when none available
system.cpu0.iq.fu_full::SimdFloatCmp                0      0.00%    100.00% # attempts to use FU when none available
system.cpu0.iq.fu_full::SimdFloatCvt                0      0.00%    100.00% # attempts to use FU when none available
system.cpu0.iq.fu_full::SimdFloatDiv                0      0.00%    100.00% # attempts to use FU when none available
system.cpu0.iq.fu_full::SimdFloatMisc               0      0.00%    100.00% # attempts to use FU when none available
system.cpu0.iq.fu_full::SimdFloatMult               0      0.00%    100.00% # attempts to use FU when none available
system.cpu0.iq.fu_full::SimdFloatMultAcc            0      0.00%    100.00% # attempts to use FU when none available
system.cpu0.iq.fu_full::SimdFloatSqrt               0      0.00%    100.00% # attempts to use FU when none available
system.cpu0.iq.fu_full::MemRead                     0      0.00%    100.00% # attempts to use FU when none available
system.cpu0.iq.fu_full::MemWrite                    0      0.00%    100.00% # attempts to use FU when none available
system.cpu0.iq.fu_full::IprAccess                   0      0.00%    100.00% # attempts to use FU when none available
system.cpu0.iq.fu_full::InstPrefetch                0      0.00%    100.00% # attempts to use FU when none available
system.cpu0.iq.FU_type_0::No_OpClass                0      0.00%      0.00% # Type of FU issued
system.cpu0.iq.FU_type_0::IntAlu              1174922     54.01%     54.01% # Type of FU issued
system.cpu0.iq.FU_type_0::IntMult              401677     18.47%     72.48% # Type of FU issued
system.cpu0.iq.FU_type_0::IntDiv                    0      0.00%     72.48% # Type of FU issued
system.cpu0.iq.FU_type_0::FloatAdd                  0      0.00%     72.48% # Type of FU issued
system.cpu0.iq.FU_type_0::FloatCmp                  0      0.00%     72.48% # Type of FU issued
system.cpu0.iq.FU_type_0::FloatCvt                  0      0.00%     72.48% # Type of FU issued
system.cpu0.iq.FU_type_0::FloatMult                 0      0.00%     72.48% # Type of FU issued
system.cpu0.iq.FU_type_0::FloatDiv                  0      0.00%     72.48% # Type of FU issued
system.cpu0.iq.FU_type_0::FloatSqrt                 0      0.00%     72.48% # Type of FU issued
system.cpu0.iq.FU_type_0::SimdAdd                   0      0.00%     72.48% # Type of FU issued
system.cpu0.iq.FU_type_0::SimdAddAcc                0      0.00%     72.48% # Type of FU issued
system.cpu0.iq.FU_type_0::SimdAlu                   0      0.00%     72.48% # Type of FU issued
system.cpu0.iq.FU_type_0::SimdCmp                   0      0.00%     72.48% # Type of FU issued
system.cpu0.iq.FU_type_0::SimdCvt                   0      0.00%     72.48% # Type of FU issued
system.cpu0.iq.FU_type_0::SimdMisc                  0      0.00%     72.48% # Type of FU issued
system.cpu0.iq.FU_type_0::SimdMult                  0      0.00%     72.48% # Type of FU issued
system.cpu0.iq.FU_type_0::SimdMultAcc               0      0.00%     72.48% # Type of FU issued
system.cpu0.iq.FU_type_0::SimdShift                 0      0.00%     72.48% # Type of FU issued
system.cpu0.iq.FU_type_0::SimdShiftAcc              0      0.00%     72.48% # Type of FU issued
system.cpu0.iq.FU_type_0::SimdSqrt                  0      0.00%     72.48% # Type of FU issued
system.cpu0.iq.FU_type_0::SimdFloatAdd              0      0.00%     72.48% # Type of FU issued
system.cpu0.iq.FU_type_0::SimdFloatAlu              0      0.00%     72.48% # Type of FU issued
system.cpu0.iq.FU_type_0::SimdFloatCmp              0      0.00%     72.48% # Type of FU issued
system.cpu0.iq.FU_type_0::SimdFloatCvt              0      0.00%     72.48% # Type of FU issued
system.cpu0.iq.FU_type_0::SimdFloatDiv              0      0.00%     72.48% # Type of FU issued
system.cpu0.iq.FU_type_0::SimdFloatMisc             3      0.00%     72.48% # Type of FU issued
system.cpu0.iq.FU_type_0::SimdFloatMult             0      0.00%     72.48% # Type of FU issued
system.cpu0.iq.FU_type_0::SimdFloatMultAcc            0      0.00%     72.48% # Type of FU issued
system.cpu0.iq.FU_type_0::SimdFloatSqrt             0      0.00%     72.48% # Type of FU issued
system.cpu0.iq.FU_type_0::MemRead              547082     25.15%     97.63% # Type of FU issued
system.cpu0.iq.FU_type_0::MemWrite              51582      2.37%    100.00% # Type of FU issued
system.cpu0.iq.FU_type_0::IprAccess                 0      0.00%    100.00% # Type of FU issued
system.cpu0.iq.FU_type_0::InstPrefetch              0      0.00%    100.00% # Type of FU issued
system.cpu0.iq.FU_type_0::total               2175266                       # Type of FU issued
system.cpu0.iq.rate                          2.713676                       # Inst issue rate
system.cpu0.iq.fu_busy_cnt                       9184                       # FU busy when requested
system.cpu0.iq.fu_busy_rate                  0.004222                       # FU busy rate (busy events/executed inst)
system.cpu0.iq.int_inst_queue_reads           5119775                       # Number of integer instruction queue reads
system.cpu0.iq.int_inst_queue_writes          2287411                       # Number of integer instruction queue writes
system.cpu0.iq.int_inst_queue_wakeup_accesses      2165009                       # Number of integer instruction queue wakeup accesses
system.cpu0.iq.fp_inst_queue_reads                 56                       # Number of floating instruction queue reads
system.cpu0.iq.fp_inst_queue_writes                28                       # Number of floating instruction queue writes
system.cpu0.iq.fp_inst_queue_wakeup_accesses           28                       # Number of floating instruction queue wakeup accesses
system.cpu0.iq.int_alu_accesses               2184422                       # Number of integer alu accesses
system.cpu0.iq.fp_alu_accesses                     28                       # Number of floating point alu accesses
system.cpu0.iew.lsq.thread0.forwLoads             139                       # Number of loads that had data forwarded from stores
system.cpu0.iew.lsq.thread0.invAddrLoads            0                       # Number of loads ignored due to an invalid address
system.cpu0.iew.lsq.thread0.squashedLoads        18311                       # Number of loads squashed
system.cpu0.iew.lsq.thread0.ignoredResponses            6                       # Number of memory responses ignored because the instruction is squashed
system.cpu0.iew.lsq.thread0.memOrderViolation           74                       # Number of memory ordering violations
system.cpu0.iew.lsq.thread0.squashedStores         1952                       # Number of stores squashed
system.cpu0.iew.lsq.thread0.invAddrSwpfs            0                       # Number of software prefetches ignored due to an invalid address
system.cpu0.iew.lsq.thread0.blockedLoads            0                       # Number of blocked loads due to partial load-store forwarding
system.cpu0.iew.lsq.thread0.rescheduledLoads          151                       # Number of loads that were rescheduled
system.cpu0.iew.lsq.thread0.cacheBlocked           93                       # Number of times an access to memory failed due to the cache being blocked
system.cpu0.iew.iewIdleCycles                       0                       # Number of cycles IEW is idle
system.cpu0.iew.iewSquashCycles                  2989                       # Number of cycles IEW is squashing
system.cpu0.iew.iewBlockCycles                   7228                       # Number of cycles IEW is blocking
system.cpu0.iew.iewUnblockCycles                  589                       # Number of cycles IEW is unblocking
system.cpu0.iew.iewDispatchedInsts            2219163                       # Number of instructions dispatched to IQ
system.cpu0.iew.iewDispSquashedInsts              221                       # Number of squashed instructions skipped by dispatch
system.cpu0.iew.iewDispLoadInsts               554446                       # Number of dispatched load instructions
system.cpu0.iew.iewDispStoreInsts               52933                       # Number of dispatched store instructions
system.cpu0.iew.iewDispNonSpecInsts               122                       # Number of dispatched non-speculative instructions
system.cpu0.iew.iewIQFullEvents                    28                       # Number of times the IQ has become full, causing a stall
system.cpu0.iew.iewLSQFullEvents                  552                       # Number of times the LSQ has become full, causing a stall
system.cpu0.iew.memOrderViolationEvents            74                       # Number of memory order violations
system.cpu0.iew.predictedTakenIncorrect          2339                       # Number of branches that were predicted taken incorrectly
system.cpu0.iew.predictedNotTakenIncorrect          642                       # Number of branches that were predicted not taken incorrectly
system.cpu0.iew.branchMispredicts                2981                       # Number of branch mispredicts detected at execute
system.cpu0.iew.iewExecutedInsts              2170793                       # Number of executed instructions
system.cpu0.iew.iewExecLoadInsts               543825                       # Number of load instructions executed
system.cpu0.iew.iewExecSquashedInsts             4473                       # Number of squashed instructions skipped in execute
system.cpu0.iew.exec_swp                            0                       # number of swp insts executed
system.cpu0.iew.exec_nop                            7                       # number of nop insts executed
system.cpu0.iew.exec_refs                      595275                       # number of memory reference insts executed
system.cpu0.iew.exec_branches                  149661                       # Number of branches executed
system.cpu0.iew.exec_stores                     51450                       # Number of stores executed
system.cpu0.iew.exec_rate                    2.708095                       # Inst execution rate
system.cpu0.iew.wb_sent                       2166191                       # cumulative count of insts sent to commit
system.cpu0.iew.wb_count                      2165037                       # cumulative count of insts written-back
system.cpu0.iew.wb_producers                  1878751                       # num instructions producing a value
system.cpu0.iew.wb_consumers                  3069522                       # num instructions consuming a value
system.cpu0.iew.wb_penalized                        0                       # number of instrctions required to write to 'other' IQ
system.cpu0.iew.wb_rate                      2.700915                       # insts written-back per cycle
system.cpu0.iew.wb_fanout                    0.612066                       # average fanout of values written-back
system.cpu0.iew.wb_penalized_rate                   0                       # fraction of instructions written-back that wrote to 'other' IQ
system.cpu0.commit.commitSquashedInsts          68225                       # The number of squashed insts skipped by commit
system.cpu0.commit.commitNonSpecStalls            185                       # The number of times commit has been forced to stall to communicate backwards
system.cpu0.commit.branchMispredicts             2927                       # The number of times a branch was mispredicted
system.cpu0.commit.committed_per_cycle::samples       747507                       # Number of insts commited each cycle
system.cpu0.commit.committed_per_cycle::mean     2.877491                       # Number of insts commited each cycle
system.cpu0.commit.committed_per_cycle::stdev     3.149137                       # Number of insts commited each cycle
system.cpu0.commit.committed_per_cycle::underflows            0      0.00%      0.00% # Number of insts commited each cycle
system.cpu0.commit.committed_per_cycle::0       239952     32.10%     32.10% # Number of insts commited each cycle
system.cpu0.commit.committed_per_cycle::1       192831     25.80%     57.90% # Number of insts commited each cycle
system.cpu0.commit.committed_per_cycle::2        26244      3.51%     61.41% # Number of insts commited each cycle
system.cpu0.commit.committed_per_cycle::3         9000      1.20%     62.61% # Number of insts commited each cycle
system.cpu0.commit.committed_per_cycle::4        15268      2.04%     64.65% # Number of insts commited each cycle
system.cpu0.commit.committed_per_cycle::5        76045     10.17%     74.83% # Number of insts commited each cycle
system.cpu0.commit.committed_per_cycle::6        27793      3.72%     78.55% # Number of insts commited each cycle
system.cpu0.commit.committed_per_cycle::7        12421      1.66%     80.21% # Number of insts commited each cycle
system.cpu0.commit.committed_per_cycle::8       147953     19.79%    100.00% # Number of insts commited each cycle
system.cpu0.commit.committed_per_cycle::overflows            0      0.00%    100.00% # Number of insts commited each cycle
system.cpu0.commit.committed_per_cycle::min_value            0                       # Number of insts commited each cycle
system.cpu0.commit.committed_per_cycle::max_value            8                       # Number of insts commited each cycle
system.cpu0.commit.committed_per_cycle::total       747507                       # Number of insts commited each cycle
system.cpu0.commit.committedInsts             2120385                       # Number of instructions committed
system.cpu0.commit.committedOps               2150945                       # Number of ops (including micro ops) committed
system.cpu0.commit.swp_count                        0                       # Number of s/w prefetches committed
system.cpu0.commit.refs                        587116                       # Number of memory references committed
system.cpu0.commit.loads                       536135                       # Number of loads committed
system.cpu0.commit.membars                        113                       # Number of memory barriers committed
system.cpu0.commit.branches                    148485                       # Number of branches committed
system.cpu0.commit.fp_insts                        28                       # Number of committed floating point instructions.
system.cpu0.commit.int_insts                  2003025                       # Number of committed integer instructions.
system.cpu0.commit.function_calls                 317                       # Number of function calls committed.
system.cpu0.commit.op_class_0::No_OpClass            0      0.00%      0.00% # Class of committed instruction
system.cpu0.commit.op_class_0::IntAlu         1162370     54.04%     54.04% # Class of committed instruction
system.cpu0.commit.op_class_0::IntMult         401456     18.66%     72.70% # Class of committed instruction
system.cpu0.commit.op_class_0::IntDiv               0      0.00%     72.70% # Class of committed instruction
system.cpu0.commit.op_class_0::FloatAdd             0      0.00%     72.70% # Class of committed instruction
system.cpu0.commit.op_class_0::FloatCmp             0      0.00%     72.70% # Class of committed instruction
system.cpu0.commit.op_class_0::FloatCvt             0      0.00%     72.70% # Class of committed instruction
system.cpu0.commit.op_class_0::FloatMult            0      0.00%     72.70% # Class of committed instruction
system.cpu0.commit.op_class_0::FloatDiv             0      0.00%     72.70% # Class of committed instruction
system.cpu0.commit.op_class_0::FloatSqrt            0      0.00%     72.70% # Class of committed instruction
system.cpu0.commit.op_class_0::SimdAdd              0      0.00%     72.70% # Class of committed instruction
system.cpu0.commit.op_class_0::SimdAddAcc            0      0.00%     72.70% # Class of committed instruction
system.cpu0.commit.op_class_0::SimdAlu              0      0.00%     72.70% # Class of committed instruction
system.cpu0.commit.op_class_0::SimdCmp              0      0.00%     72.70% # Class of committed instruction
system.cpu0.commit.op_class_0::SimdCvt              0      0.00%     72.70% # Class of committed instruction
system.cpu0.commit.op_class_0::SimdMisc             0      0.00%     72.70% # Class of committed instruction
system.cpu0.commit.op_class_0::SimdMult             0      0.00%     72.70% # Class of committed instruction
system.cpu0.commit.op_class_0::SimdMultAcc            0      0.00%     72.70% # Class of committed instruction
system.cpu0.commit.op_class_0::SimdShift            0      0.00%     72.70% # Class of committed instruction
system.cpu0.commit.op_class_0::SimdShiftAcc            0      0.00%     72.70% # Class of committed instruction
system.cpu0.commit.op_class_0::SimdSqrt             0      0.00%     72.70% # Class of committed instruction
system.cpu0.commit.op_class_0::SimdFloatAdd            0      0.00%     72.70% # Class of committed instruction
system.cpu0.commit.op_class_0::SimdFloatAlu            0      0.00%     72.70% # Class of committed instruction
system.cpu0.commit.op_class_0::SimdFloatCmp            0      0.00%     72.70% # Class of committed instruction
system.cpu0.commit.op_class_0::SimdFloatCvt            0      0.00%     72.70% # Class of committed instruction
system.cpu0.commit.op_class_0::SimdFloatDiv            0      0.00%     72.70% # Class of committed instruction
system.cpu0.commit.op_class_0::SimdFloatMisc            3      0.00%     72.70% # Class of committed instruction
system.cpu0.commit.op_class_0::SimdFloatMult            0      0.00%     72.70% # Class of committed instruction
system.cpu0.commit.op_class_0::SimdFloatMultAcc            0      0.00%     72.70% # Class of committed instruction
system.cpu0.commit.op_class_0::SimdFloatSqrt            0      0.00%     72.70% # Class of committed instruction
system.cpu0.commit.op_class_0::MemRead         536135     24.93%     97.63% # Class of committed instruction
system.cpu0.commit.op_class_0::MemWrite         50981      2.37%    100.00% # Class of committed instruction
system.cpu0.commit.op_class_0::IprAccess            0      0.00%    100.00% # Class of committed instruction
system.cpu0.commit.op_class_0::InstPrefetch            0      0.00%    100.00% # Class of committed instruction
system.cpu0.commit.op_class_0::total          2150945                       # Class of committed instruction
system.cpu0.commit.bw_lim_events               147953                       # number cycles where commit BW limit reached
system.cpu0.rob.rob_reads                     2818515                       # The number of ROB reads
system.cpu0.rob.rob_writes                    4447786                       # The number of ROB writes
system.cpu0.timesIdled                            444                       # Number of times that the entire CPU went into an idle state and unscheduled itself
system.cpu0.idleCycles                          44657                       # Total number of cycles that the CPU has spent unscheduled due to idling
system.cpu0.committedInsts                    2120385                       # Number of Instructions Simulated
system.cpu0.committedOps                      2150945                       # Number of Ops (including micro ops) Simulated
system.cpu0.cpi                              0.378042                       # CPI: Cycles Per Instruction
system.cpu0.cpi_total                        0.378042                       # CPI: Total CPI of All Threads
system.cpu0.ipc                              2.645211                       # IPC: Instructions Per Cycle
system.cpu0.ipc_total                        2.645211                       # IPC: Total IPC of All Threads
system.cpu0.int_regfile_reads                 3572217                       # number of integer regfile reads
system.cpu0.int_regfile_writes                1951426                       # number of integer regfile writes
system.cpu0.fp_regfile_reads                      182                       # number of floating regfile reads
system.cpu0.fp_regfile_writes                       6                       # number of floating regfile writes
system.cpu0.cc_regfile_reads                  8129979                       # number of cc regfile reads
system.cpu0.cc_regfile_writes                  871522                       # number of cc regfile writes
system.cpu0.misc_regfile_reads                 594434                       # number of misc regfile reads
system.cpu0.misc_regfile_writes                   112                       # number of misc regfile writes
system.cpu0.dcache.tags.replacements             7144                       # number of replacements
[...]
system.l2.blocked_cycles::no_mshrs                  0                       # number of cycles access was blocked
system.l2.blocked_cycles::no_targets                0                       # number of cycles access was blocked
system.l2.blocked::no_mshrs                         0                       # number of cycles access was blocked
system.l2.blocked::no_targets                       0                       # number of cycles access was blocked
system.l2.avg_blocked_cycles::no_mshrs            nan                       # average number of cycles each access was blocked
system.l2.avg_blocked_cycles::no_targets          nan                       # average number of cycles each access was blocked
system.l2.fast_writes                               0                       # number of fast writes performed
system.l2.cache_copies                              0                       # number of cache copies performed
system.l2.ReadReq_mshr_hits::cpu0.inst              2                       # number of ReadReq MSHR hits
system.l2.ReadReq_mshr_hits::cpu0.data             16                       # number of ReadReq MSHR hits
system.l2.ReadReq_mshr_hits::cpu1.inst              6                       # number of ReadReq MSHR hits
system.l2.ReadReq_mshr_hits::cpu1.data              1                       # number of ReadReq MSHR hits
system.l2.ReadReq_mshr_hits::total                 25                       # number of ReadReq MSHR hits
system.l2.demand_mshr_hits::cpu0.inst               2                       # number of demand (read+write) MSHR hits
system.l2.demand_mshr_hits::cpu0.data              16                       # number of demand (read+write) MSHR hits
system.l2.demand_mshr_hits::cpu1.inst               6                       # number of demand (read+write) MSHR hits
system.l2.demand_mshr_hits::cpu1.data               1                       # number of demand (read+write) MSHR hits
system.l2.demand_mshr_hits::total                  25                       # number of demand (read+write) MSHR hits
system.l2.overall_mshr_hits::cpu0.inst              2                       # number of overall MSHR hits
system.l2.overall_mshr_hits::cpu0.data             16                       # number of overall MSHR hits
system.l2.overall_mshr_hits::cpu1.inst              6                       # number of overall MSHR hits
system.l2.overall_mshr_hits::cpu1.data              1                       # number of overall MSHR hits
system.l2.overall_mshr_hits::total                 25                       # number of overall MSHR hits
system.l2.ReadReq_mshr_misses::cpu0.inst          557                       # number of ReadReq MSHR misses
system.l2.ReadReq_mshr_misses::cpu0.data          125                       # number of ReadReq MSHR misses
system.l2.ReadReq_mshr_misses::cpu1.inst           20                       # number of ReadReq MSHR misses
system.l2.ReadReq_mshr_misses::cpu1.data            1                       # number of ReadReq MSHR misses
system.l2.ReadReq_mshr_misses::total              703                       # number of ReadReq MSHR misses
system.l2.UpgradeReq_mshr_misses::cpu0.data           17                       # number of UpgradeReq MSHR misses
system.l2.UpgradeReq_mshr_misses::total            17                       # number of UpgradeReq MSHR misses
system.l2.ReadExReq_mshr_misses::cpu0.data         1668                       # number of ReadExReq MSHR misses
system.l2.ReadExReq_mshr_misses::cpu1.data            4                       # number of ReadExReq MSHR misses
system.l2.ReadExReq_mshr_misses::total           1672                       # number of ReadExReq MSHR misses
system.l2.demand_mshr_misses::cpu0.inst           557                       # number of demand (read+write) MSHR misses
system.l2.demand_mshr_misses::cpu0.data          1793                       # number of demand (read+write) MSHR misses
system.l2.demand_mshr_misses::cpu1.inst            20                       # number of demand (read+write) MSHR misses
system.l2.demand_mshr_misses::cpu1.data             5                       # number of demand (read+write) MSHR misses
system.l2.demand_mshr_misses::total              2375                       # number of demand (read+write) MSHR misses
system.l2.overall_mshr_misses::cpu0.inst          557                       # number of overall MSHR misses
system.l2.overall_mshr_misses::cpu0.data         1793                       # number of overall MSHR misses
system.l2.overall_mshr_misses::cpu1.inst           20                       # number of overall MSHR misses
system.l2.overall_mshr_misses::cpu1.data            5                       # number of overall MSHR misses
system.l2.overall_mshr_misses::total             2375                       # number of overall MSHR misses
system.l2.ReadReq_mshr_miss_latency::cpu0.inst     35704750                       # number of ReadReq MSHR miss cycles
system.l2.ReadReq_mshr_miss_latency::cpu0.data      8818000                       # number of ReadReq MSHR miss cycles
system.l2.ReadReq_mshr_miss_latency::cpu1.inst      1282000                       # number of ReadReq MSHR miss cycles
system.l2.ReadReq_mshr_miss_latency::cpu1.data        70500                       # number of ReadReq MSHR miss cycles
system.l2.ReadReq_mshr_miss_latency::total     45875250                       # number of ReadReq MSHR miss cycles
system.l2.UpgradeReq_mshr_miss_latency::cpu0.data       301517                       # number of UpgradeReq MSHR miss cycles
system.l2.UpgradeReq_mshr_miss_latency::total       301517                       # number of UpgradeReq MSHR miss cycles
system.l2.ReadExReq_mshr_miss_latency::cpu0.data    101535000                       # number of ReadExReq MSHR miss cycles
system.l2.ReadExReq_mshr_miss_latency::cpu1.data       254000                       # number of ReadExReq MSHR miss cycles
system.l2.ReadExReq_mshr_miss_latency::total    101789000                       # number of ReadExReq MSHR miss cycles
system.l2.demand_mshr_miss_latency::cpu0.inst     35704750                       # number of demand (read+write) MSHR miss cycles
system.l2.demand_mshr_miss_latency::cpu0.data    110353000                       # number of demand (read+write) MSHR miss cycles
system.l2.demand_mshr_miss_latency::cpu1.inst      1282000                       # number of demand (read+write) MSHR miss cycles
system.l2.demand_mshr_miss_latency::cpu1.data       324500                       # number of demand (read+write) MSHR miss cycles
system.l2.demand_mshr_miss_latency::total    147664250                       # number of demand (read+write) MSHR miss cycles
system.l2.overall_mshr_miss_latency::cpu0.inst     35704750                       # number of overall MSHR miss cycles
system.l2.overall_mshr_miss_latency::cpu0.data    110353000                       # number of overall MSHR miss cycles
system.l2.overall_mshr_miss_latency::cpu1.inst      1282000                       # number of overall MSHR miss cycles
system.l2.overall_mshr_miss_latency::cpu1.data       324500                       # number of overall MSHR miss cycles
system.l2.overall_mshr_miss_latency::total    147664250                       # number of overall MSHR miss cycles
system.l2.ReadReq_mshr_miss_rate::cpu0.inst     0.855607                       # mshr miss rate for ReadReq accesses
system.l2.ReadReq_mshr_miss_rate::cpu0.data     0.034674                       # mshr miss rate for ReadReq accesses
system.l2.ReadReq_mshr_miss_rate::cpu1.inst     0.384615                       # mshr miss rate for ReadReq accesses
system.l2.ReadReq_mshr_miss_rate::cpu1.data     0.003774                       # mshr miss rate for ReadReq accesses
system.l2.ReadReq_mshr_miss_rate::total      0.153728                       # mshr miss rate for ReadReq accesses
system.l2.UpgradeReq_mshr_miss_rate::cpu0.data     0.772727                       # mshr miss rate for UpgradeReq accesses
system.l2.UpgradeReq_mshr_miss_rate::total     0.772727                       # mshr miss rate for UpgradeReq accesses
system.l2.ReadExReq_mshr_miss_rate::cpu0.data     0.370502                       # mshr miss rate for ReadExReq accesses
system.l2.ReadExReq_mshr_miss_rate::cpu1.data     0.001975                       # mshr miss rate for ReadExReq accesses
system.l2.ReadExReq_mshr_miss_rate::total     0.256167                       # mshr miss rate for ReadExReq accesses
system.l2.demand_mshr_miss_rate::cpu0.inst     0.855607                       # mshr miss rate for demand accesses
system.l2.demand_mshr_miss_rate::cpu0.data     0.221167                       # mshr miss rate for demand accesses
system.l2.demand_mshr_miss_rate::cpu1.inst     0.384615                       # mshr miss rate for demand accesses
system.l2.demand_mshr_miss_rate::cpu1.data     0.002183                       # mshr miss rate for demand accesses
system.l2.demand_mshr_miss_rate::total       0.213964                       # mshr miss rate for demand accesses
system.l2.overall_mshr_miss_rate::cpu0.inst     0.855607                       # mshr miss rate for overall accesses
system.l2.overall_mshr_miss_rate::cpu0.data     0.221167                       # mshr miss rate for overall accesses
system.l2.overall_mshr_miss_rate::cpu1.inst     0.384615                       # mshr miss rate for overall accesses
system.l2.overall_mshr_miss_rate::cpu1.data     0.002183                       # mshr miss rate for overall accesses
system.l2.overall_mshr_miss_rate::total      0.213964                       # mshr miss rate for overall accesses
system.l2.ReadReq_avg_mshr_miss_latency::cpu0.inst 64101.885099                       # average ReadReq mshr miss latency
system.l2.ReadReq_avg_mshr_miss_latency::cpu0.data        70544                       # average ReadReq mshr miss latency
system.l2.ReadReq_avg_mshr_miss_latency::cpu1.inst        64100                       # average ReadReq mshr miss latency
system.l2.ReadReq_avg_mshr_miss_latency::cpu1.data        70500                       # average ReadReq mshr miss latency
system.l2.ReadReq_avg_mshr_miss_latency::total 65256.401138                       # average ReadReq mshr miss latency
system.l2.UpgradeReq_avg_mshr_miss_latency::cpu0.data 17736.294118                       # average UpgradeReq mshr miss latency
system.l2.UpgradeReq_avg_mshr_miss_latency::total 17736.294118                       # average UpgradeReq mshr miss latency
system.l2.ReadExReq_avg_mshr_miss_latency::cpu0.data 60872.302158                       # average ReadExReq mshr miss latency
system.l2.ReadExReq_avg_mshr_miss_latency::cpu1.data        63500                       # average ReadExReq mshr miss latency
system.l2.ReadExReq_avg_mshr_miss_latency::total 60878.588517                       # average ReadExReq mshr miss latency
system.l2.demand_avg_mshr_miss_latency::cpu0.inst 64101.885099                       # average overall mshr miss latency
system.l2.demand_avg_mshr_miss_latency::cpu0.data 61546.569994                       # average overall mshr miss latency
system.l2.demand_avg_mshr_miss_latency::cpu1.inst        64100                       # average overall mshr miss latency
system.l2.demand_avg_mshr_miss_latency::cpu1.data        64900                       # average overall mshr miss latency
system.l2.demand_avg_mshr_miss_latency::total 62174.421053                       # average overall mshr miss latency
system.l2.overall_avg_mshr_miss_latency::cpu0.inst 64101.885099                       # average overall mshr miss latency
system.l2.overall_avg_mshr_miss_latency::cpu0.data 61546.569994                       # average overall mshr miss latency
system.l2.overall_avg_mshr_miss_latency::cpu1.inst        64100                       # average overall mshr miss latency
system.l2.overall_avg_mshr_miss_latency::cpu1.data        64900                       # average overall mshr miss latency
system.l2.overall_avg_mshr_miss_latency::total 62174.421053                       # average overall mshr miss latency
system.l2.no_allocate_misses                        0                       # Number of misses that were no-allocate
system.membus.trans_dist::ReadReq                 702                       # Transaction distribution
system.membus.trans_dist::ReadResp                701                       # Transaction distribution
system.membus.trans_dist::UpgradeReq               44                       # Transaction distribution
system.membus.trans_dist::SCUpgradeReq              2                       # Transaction distribution
system.membus.trans_dist::UpgradeResp              17                       # Transaction distribution
system.membus.trans_dist::ReadExReq              1672                       # Transaction distribution
system.membus.trans_dist::ReadExResp             1672                       # Transaction distribution
system.membus.pkt_count_system.l2.mem_side::system.mem_ctrls.port         4810                       # Packet count per connected master and slave (bytes)
system.membus.pkt_count::total                   4810                       # Packet count per connected master and slave (bytes)
system.membus.pkt_size_system.l2.mem_side::system.mem_ctrls.port       151872                       # Cumulative packet size per connected master and slave (bytes)
system.membus.pkt_size::total                  151872                       # Cumulative packet size per connected master and slave (bytes)
system.membus.snoops                               29                       # Total snoops (count)
system.membus.snoop_fanout::samples              2420                       # Request fanout histogram
system.membus.snoop_fanout::mean                    0                       # Request fanout histogram
system.membus.snoop_fanout::stdev                   0                       # Request fanout histogram
system.membus.snoop_fanout::underflows              0      0.00%      0.00% # Request fanout histogram
system.membus.snoop_fanout::0                    2420    100.00%    100.00% # Request fanout histogram
system.membus.snoop_fanout::1                       0      0.00%    100.00% # Request fanout histogram
system.membus.snoop_fanout::overflows               0      0.00%    100.00% # Request fanout histogram
system.membus.snoop_fanout::min_value               0                       # Request fanout histogram
system.membus.snoop_fanout::max_value               0                       # Request fanout histogram
system.membus.snoop_fanout::total                2420                       # Request fanout histogram
system.membus.reqLayer0.occupancy             2598500                       # Layer occupancy (ticks)
system.membus.reqLayer0.utilization               0.6                       # Layer utilization (%)
system.membus.respLayer1.occupancy           12527733                       # Layer occupancy (ticks)
system.membus.respLayer1.utilization              3.1                       # Layer utilization (%)
system.tol2bus.trans_dist::ReadReq               8679                       # Transaction distribution
system.tol2bus.trans_dist::ReadResp              8677                       # Transaction distribution
system.tol2bus.trans_dist::Writeback             7659                       # Transaction distribution
system.tol2bus.trans_dist::UpgradeReq              49                       # Transaction distribution
system.tol2bus.trans_dist::SCUpgradeReq             3                       # Transaction distribution
system.tol2bus.trans_dist::UpgradeResp             52                       # Transaction distribution
system.tol2bus.trans_dist::ReadExReq             6529                       # Transaction distribution
system.tol2bus.trans_dist::ReadExResp            6529                       # Transaction distribution
system.tol2bus.pkt_count_system.cpu0.icache.mem_side::system.l2.cpu_side         1300                       # Packet count per connected master and slave (bytes)
system.tol2bus.pkt_count_system.cpu0.dcache.mem_side::system.l2.cpu_side        21811                       # Packet count per connected master and slave (bytes)
system.tol2bus.pkt_count_system.cpu1.icache.mem_side::system.l2.cpu_side          104                       # Packet count per connected master and slave (bytes)
system.tol2bus.pkt_count_system.cpu1.dcache.mem_side::system.l2.cpu_side        10825                       # Packet count per connected master and slave (bytes)
system.tol2bus.pkt_count::total                 34040                       # Packet count per connected master and slave (bytes)
system.tol2bus.pkt_size_system.cpu0.icache.mem_side::system.l2.cpu_side        41536                       # Cumulative packet size per connected master and slave (bytes)
system.tol2bus.pkt_size_system.cpu0.dcache.mem_side::system.l2.cpu_side       868096                       # Cumulative packet size per connected master and slave (bytes)
system.tol2bus.pkt_size_system.cpu1.icache.mem_side::system.l2.cpu_side         3328                       # Cumulative packet size per connected master and slave (bytes)
system.tol2bus.pkt_size_system.cpu1.dcache.mem_side::system.l2.cpu_side       287488                       # Cumulative packet size per connected master and slave (bytes)
system.tol2bus.pkt_size::total                1200448                       # Cumulative packet size per connected master and slave (bytes)
system.tol2bus.snoops                            4137                       # Total snoops (count)
system.tol2bus.snoop_fanout::samples            22919                       # Request fanout histogram
system.tol2bus.snoop_fanout::mean                   3                       # Request fanout histogram
system.tol2bus.snoop_fanout::stdev                  0                       # Request fanout histogram
system.tol2bus.snoop_fanout::underflows             0      0.00%      0.00% # Request fanout histogram
system.tol2bus.snoop_fanout::0                      0      0.00%      0.00% # Request fanout histogram
system.tol2bus.snoop_fanout::1                      0      0.00%      0.00% # Request fanout histogram
system.tol2bus.snoop_fanout::2                      0      0.00%      0.00% # Request fanout histogram
system.tol2bus.snoop_fanout::3                  22919    100.00%    100.00% # Request fanout histogram
system.tol2bus.snoop_fanout::4                      0      0.00%    100.00% # Request fanout histogram
system.tol2bus.snoop_fanout::overflows              0      0.00%    100.00% # Request fanout histogram
system.tol2bus.snoop_fanout::min_value              3                       # Request fanout histogram
system.tol2bus.snoop_fanout::max_value              3                       # Request fanout histogram
system.tol2bus.snoop_fanout::total              22919                       # Request fanout histogram
system.tol2bus.reqLayer0.occupancy           19119498                       # Layer occupancy (ticks)
system.tol2bus.reqLayer0.utilization              4.8                       # Layer utilization (%)
system.tol2bus.respLayer0.occupancy           1075746                       # Layer occupancy (ticks)
system.tol2bus.respLayer0.utilization             0.3                       # Layer utilization (%)
system.tol2bus.respLayer1.occupancy          12668250                       # Layer occupancy (ticks)
system.tol2bus.respLayer1.utilization             3.2                       # Layer utilization (%)
system.tol2bus.respLayer4.occupancy             82994                       # Layer occupancy (ticks)
system.tol2bus.respLayer4.utilization             0.0                       # Layer utilization (%)
system.tol2bus.respLayer5.occupancy           9498748                       # Layer occupancy (ticks)
system.tol2bus.respLayer5.utilization             2.4                       # Layer utilization (%)

---------- End Simulation Statistics   ----------
