
---------- Begin Simulation Statistics ----------
sim_seconds                                  0.000641                       # Number of seconds simulated
sim_ticks                                   641209000                       # Number of ticks simulated
final_tick                                  641209000                       # Number of ticks from beginning of simulation (restored from checkpoints and never reset)
sim_freq                                 1000000000000                       # Frequency of simulated ticks
host_inst_rate                                 215446                       # Simulator instruction rate (inst/s)
host_op_rate                                   217158                       # Simulator op (including micro ops) rate (op/s)
host_tick_rate                               33505416                       # Simulator tick rate (ticks/s)
host_mem_usage                                 656676                       # Number of bytes of host memory used
host_seconds                                    19.14                       # Real time elapsed on the host
sim_insts                                     4123094                       # Number of instructions simulated
sim_ops                                       4155857                       # Number of ops (including micro ops) simulated
system.voltage_domain.voltage                       1                       # Voltage in Volts
system.clk_domain.clock                          1000                       # Clock period in ticks
system.mem_ctrls.bytes_read::cpu0.inst          36096                       # Number of bytes read from this memory
system.mem_ctrls.bytes_read::cpu0.data         114496                       # Number of bytes read from this memory
system.mem_ctrls.bytes_read::cpu1.inst           1024                       # Number of bytes read from this memory
system.mem_ctrls.bytes_read::cpu1.data            256                       # Number of bytes read from this memory
system.mem_ctrls.bytes_read::total             151872                       # Number of bytes read from this memory
system.mem_ctrls.bytes_inst_read::cpu0.inst        36096                       # Number of instructions bytes read from this memory
system.mem_ctrls.bytes_inst_read::cpu1.inst         1024                       # Number of instructions bytes read from this memory
system.mem_ctrls.bytes_inst_read::total         37120                       # Number of instructions bytes read from this memory
system.mem_ctrls.num_reads::cpu0.inst             564                       # Number of read requests responded to by this memory
system.mem_ctrls.num_reads::cpu0.data            1789                       # Number of read requests responded to by this memory
system.mem_ctrls.num_reads::cpu1.inst              16                       # Number of read requests responded to by this memory
system.mem_ctrls.num_reads::cpu1.data               4                       # Number of read requests responded to by this memory
system.mem_ctrls.num_reads::total                2373                       # Number of read requests responded to by this memory
system.mem_ctrls.bw_read::cpu0.inst          56293658                       # Total read bandwidth from this memory (bytes/s)
system.mem_ctrls.bw_read::cpu0.data         178562684                       # Total read bandwidth from this memory (bytes/s)
system.mem_ctrls.bw_read::cpu1.inst           1596983                       # Total read bandwidth from this memory (bytes/s)
system.mem_ctrls.bw_read::cpu1.data            399246                       # Total read bandwidth from this memory (bytes/s)
system.mem_ctrls.bw_read::total             236852571                       # Total read bandwidth from this memory (bytes/s)
system.mem_ctrls.bw_inst_read::cpu0.inst     56293658                       # Instruction read bandwidth from this memory (bytes/s)
system.mem_ctrls.bw_inst_read::cpu1.inst      1596983                       # Instruction read bandwidth from this memory (bytes/s)
system.mem_ctrls.bw_inst_read::total         57890641                       # Instruction read bandwidth from this memory (bytes/s)
system.mem_ctrls.bw_total::cpu0.inst         56293658                       # Total bandwidth to/from this memory (bytes/s)
system.mem_ctrls.bw_total::cpu0.data        178562684                       # Total bandwidth to/from this memory (bytes/s)
system.mem_ctrls.bw_total::cpu1.inst          1596983                       # Total bandwidth to/from this memory (bytes/s)
system.mem_ctrls.bw_total::cpu1.data           399246                       # Total bandwidth to/from this memory (bytes/s)
system.mem_ctrls.bw_total::total            236852571                       # Total bandwidth to/from this memory (bytes/s)
system.mem_ctrls.readReqs                        2373                       # Number of read requests accepted
system.mem_ctrls.writeReqs                          0                       # Number of write requests accepted
system.mem_ctrls.readBursts                      2373                       # Number of DRAM read bursts, including those serviced by the write queue
system.mem_ctrls.writeBursts                        0                       # Number of DRAM write bursts, including those merged in the write queue
system.mem_ctrls.bytesReadDRAM                 151872                       # Total number of bytes read from DRAM
system.mem_ctrls.bytesReadWrQ                       0                       # Total number of bytes read from write queue
system.mem_ctrls.bytesWritten                       0                       # Total number of bytes written to DRAM
system.mem_ctrls.bytesReadSys                  151872                       # Total read bytes from the system interface side
system.mem_ctrls.bytesWrittenSys                    0                       # Total written bytes from the system interface side
system.mem_ctrls.servicedByWrQ                      0                       # Number of DRAM read bursts serviced by the write queue
system.mem_ctrls.mergedWrBursts                     0                       # Number of DRAM write bursts merged with an existing one
system.mem_ctrls.neitherReadNorWriteReqs           10                       # Number of requests that are neither read nor write
system.mem_ctrls.perBankRdBursts::0               131                       # Per bank write bursts
system.mem_ctrls.perBankRdBursts::1               122                       # Per bank write bursts
system.mem_ctrls.perBankRdBursts::2               143                       # Per bank write bursts
system.mem_ctrls.perBankRdBursts::3               198                       # Per bank write bursts
system.mem_ctrls.perBankRdBursts::4               150                       # Per bank write bursts
system.mem_ctrls.perBankRdBursts::5               150                       # Per bank write bursts
system.mem_ctrls.perBankRdBursts::6               221                       # Per bank write bursts
system.mem_ctrls.perBankRdBursts::7               162                       # Per bank write bursts
system.mem_ctrls.perBankRdBursts::8               142                       # Per bank write bursts
system.mem_ctrls.perBankRdBursts::9               138                       # Per bank write bursts
system.mem_ctrls.perBankRdBursts::10              128                       # Per bank write bursts
system.mem_ctrls.perBankRdBursts::11              142                       # Per bank write bursts
system.mem_ctrls.perBankRdBursts::12              134                       # Per bank write bursts
system.mem_ctrls.perBankRdBursts::13              161                       # Per bank write bursts
system.mem_ctrls.perBankRdBursts::14              166                       # Per bank write bursts
system.mem_ctrls.perBankRdBursts::15               85                       # Per bank write bursts
system.mem_ctrls.perBankWrBursts::0                 0                       # Per bank write bursts
system.mem_ctrls.perBankWrBursts::1                 0                       # Per bank write bursts
system.mem_ctrls.perBankWrBursts::2                 0                       # Per bank write bursts
system.mem_ctrls.perBankWrBursts::3                 0                       # Per bank write bursts
system.mem_ctrls.perBankWrBursts::4                 0                       # Per bank write bursts
system.mem_ctrls.perBankWrBursts::5                 0                       # Per bank write bursts
system.mem_ctrls.perBankWrBursts::6                 0                       # Per bank write bursts
system.mem_ctrls.perBankWrBursts::7                 0                       # Per bank write bursts
system.mem_ctrls.perBankWrBursts::8                 0                       # Per bank write bursts
system.mem_ctrls.perBankWrBursts::9                 0                       # Per bank write bursts
system.mem_ctrls.perBankWrBursts::10                0                       # Per bank write bursts
system.mem_ctrls.perBankWrBursts::11                0                       # Per bank write bursts
system.mem_ctrls.perBankWrBursts::12                0                       # Per bank write bursts
system.mem_ctrls.perBankWrBursts::13                0                       # Per bank write bursts
system.mem_ctrls.perBankWrBursts::14                0                       # Per bank write bursts
system.mem_ctrls.perBankWrBursts::15                0                       # Per bank write bursts
system.mem_ctrls.numRdRetry                         0                       # Number of times read queue was full causing retry
system.mem_ctrls.numWrRetry                         0                       # Number of times write queue was full causing retry
system.mem_ctrls.totGap                     641165500                       # Total gap between requests
system.mem_ctrls.readPktSize::0                     0                       # Read request sizes (log2)
system.mem_ctrls.readPktSize::1                     0                       # Read request sizes (log2)
system.mem_ctrls.readPktSize::2                     0                       # Read request sizes (log2)
system.mem_ctrls.readPktSize::3                     0                       # Read request sizes (log2)
system.mem_ctrls.readPktSize::4                     0                       # Read request sizes (log2)
system.mem_ctrls.readPktSize::5                     0                       # Read request sizes (log2)
system.mem_ctrls.readPktSize::6                  2373                       # Read request sizes (log2)
system.mem_ctrls.writePktSize::0                    0                       # Write request sizes (log2)
system.mem_ctrls.writePktSize::1                    0                       # Write request sizes (log2)
system.mem_ctrls.writePktSize::2                    0                       # Write request sizes (log2)
system.mem_ctrls.writePktSize::3                    0                       # Write request sizes (log2)
system.mem_ctrls.writePktSize::4                    0                       # Write request sizes (log2)
system.mem_ctrls.writePktSize::5                    0                       # Write request sizes (log2)
system.mem_ctrls.writePktSize::6                    0                       # Write request sizes (log2)
system.mem_ctrls.rdQLenPdf::0                    1378                       # What read queue length does an incoming req see
system.mem_ctrls.rdQLenPdf::1                     895                       # What read queue length does an incoming req see
system.mem_ctrls.rdQLenPdf::2                      72                       # What read queue length does an incoming req see
system.mem_ctrls.rdQLenPdf::3                      20                       # What read queue length does an incoming req see
system.mem_ctrls.rdQLenPdf::4                       7                       # What read queue length does an incoming req see
system.mem_ctrls.rdQLenPdf::5                       1                       # What read queue length does an incoming req see
system.mem_ctrls.rdQLenPdf::6                       0                       # What read queue length does an incoming req see
system.mem_ctrls.rdQLenPdf::7                       0                       # What read queue length does an incoming req see
system.mem_ctrls.rdQLenPdf::8                       0                       # What read queue length does an incoming req see
system.mem_ctrls.rdQLenPdf::9                       0                       # What read queue length does an incoming req see
system.mem_ctrls.rdQLenPdf::10                      0                       # What read queue length does an incoming req see
system.mem_ctrls.rdQLenPdf::11                      0                       # What read queue length does an incoming req see
system.mem_ctrls.rdQLenPdf::12                      0                       # What read queue length does an incoming req see
system.mem_ctrls.rdQLenPdf::13                      0                       # What read queue length does an incoming req see
system.mem_ctrls.rdQLenPdf::14                      0                       # What read queue length does an incoming req see
system.mem_ctrls.rdQLenPdf::15                      0                       # What read queue length does an incoming req see
system.mem_ctrls.rdQLenPdf::16                      0                       # What read queue length does an incoming req see
system.mem_ctrls.rdQLenPdf::17                      0                       # What read queue length does an incoming req see
system.mem_ctrls.rdQLenPdf::18                      0                       # What read queue length does an incoming req see
system.mem_ctrls.rdQLenPdf::19                      0                       # What read queue length does an incoming req see
system.mem_ctrls.rdQLenPdf::20                      0                       # What read queue length does an incoming req see
system.mem_ctrls.rdQLenPdf::21                      0                       # What read queue length does an incoming req see
system.mem_ctrls.rdQLenPdf::22                      0                       # What read queue length does an incoming req see
system.mem_ctrls.rdQLenPdf::23                      0                       # What read queue length does an incoming req see
system.mem_ctrls.rdQLenPdf::24                      0                       # What read queue length does an incoming req see
system.mem_ctrls.rdQLenPdf::25                      0                       # What read queue length does an incoming req see
system.mem_ctrls.rdQLenPdf::26                      0                       # What read queue length does an incoming req see
system.mem_ctrls.rdQLenPdf::27                      0                       # What read queue length does an incoming req see
system.mem_ctrls.rdQLenPdf::28                      0                       # What read queue length does an incoming req see
system.mem_ctrls.rdQLenPdf::29                      0                       # What read queue length does an incoming req see
system.mem_ctrls.rdQLenPdf::30                      0                       # What read queue length does an incoming req see
system.mem_ctrls.rdQLenPdf::31                      0                       # What read queue length does an incoming req see
system.mem_ctrls.wrQLenPdf::0                       0                       # What write queue length does an incoming req see
system.mem_ctrls.wrQLenPdf::1                       0                       # What write queue length does an incoming req see
system.mem_ctrls.wrQLenPdf::2                       0                       # What write queue length does an incoming req see
system.mem_ctrls.wrQLenPdf::3                       0                       # What write queue length does an incoming req see
system.mem_ctrls.wrQLenPdf::4                       0                       # What write queue length does an incoming req see
system.mem_ctrls.wrQLenPdf::5                       0                       # What write queue length does an incoming req see
system.mem_ctrls.wrQLenPdf::6                       0                       # What write queue length does an incoming req see
system.mem_ctrls.wrQLenPdf::7                       0                       # What write queue length does an incoming req see
system.mem_ctrls.wrQLenPdf::8                       0                       # What write queue length does an incoming req see
system.mem_ctrls.wrQLenPdf::9                       0                       # What write queue length does an incoming req see
system.mem_ctrls.wrQLenPdf::10                      0                       # What write queue length does an incoming req see
system.mem_ctrls.wrQLenPdf::11                      0                       # What write queue length does an incoming req see
system.mem_ctrls.wrQLenPdf::12                      0                       # What write queue length does an incoming req see
system.mem_ctrls.wrQLenPdf::13                      0                       # What write queue length does an incoming req see
system.mem_ctrls.wrQLenPdf::14                      0                       # What write queue length does an incoming req see
system.mem_ctrls.wrQLenPdf::15                      0                       # What write queue length does an incoming req see
system.mem_ctrls.wrQLenPdf::16                      0                       # What write queue length does an incoming req see
system.mem_ctrls.wrQLenPdf::17                      0                       # What write queue length does an incoming req see
system.mem_ctrls.wrQLenPdf::18                      0                       # What write queue length does an incoming req see
system.mem_ctrls.wrQLenPdf::19                      0                       # What write queue length does an incoming req see
system.mem_ctrls.wrQLenPdf::20                      0                       # What write queue length does an incoming req see
system.mem_ctrls.wrQLenPdf::21                      0                       # What write queue length does an incoming req see
system.mem_ctrls.wrQLenPdf::22                      0                       # What write queue length does an incoming req see
system.mem_ctrls.wrQLenPdf::23                      0                       # What write queue length does an incoming req see
system.mem_ctrls.wrQLenPdf::24                      0                       # What write queue length does an incoming req see
system.mem_ctrls.wrQLenPdf::25                      0                       # What write queue length does an incoming req see
system.mem_ctrls.wrQLenPdf::26                      0                       # What write queue length does an incoming req see
system.mem_ctrls.wrQLenPdf::27                      0                       # What write queue length does an incoming req see
system.mem_ctrls.wrQLenPdf::28                      0                       # What write queue length does an incoming req see
system.mem_ctrls.wrQLenPdf::29                      0                       # What write queue length does an incoming req see
system.mem_ctrls.wrQLenPdf::30                      0                       # What write queue length does an incoming req see
system.mem_ctrls.wrQLenPdf::31                      0                       # What write queue length does an incoming req see
system.mem_ctrls.wrQLenPdf::32                      0                       # What write queue length does an incoming req see
system.mem_ctrls.wrQLenPdf::33                      0                       # What write queue length does an incoming req see
system.mem_ctrls.wrQLenPdf::34                      0                       # What write queue length does an incoming req see
system.mem_ctrls.wrQLenPdf::35                      0                       # What write queue length does an incoming req see
system.mem_ctrls.wrQLenPdf::36                      0                       # What write queue length does an incoming req see
system.mem_ctrls.wrQLenPdf::37                      0                       # What write queue length does an incoming req see
system.mem_ctrls.wrQLenPdf::38                      0                       # What write queue length does an incoming req see
system.mem_ctrls.wrQLenPdf::39                      0                       # What write queue length does an incoming req see
system.mem_ctrls.wrQLenPdf::40                      0                       # What write queue length does an incoming req see
system.mem_ctrls.wrQLenPdf::41                      0                       # What write queue length does an incoming req see
system.mem_ctrls.wrQLenPdf::42                      0                       # What write queue length does an incoming req see
system.mem_ctrls.wrQLenPdf::43                      0                       # What write queue length does an incoming req see
system.mem_ctrls.wrQLenPdf::44                      0                       # What write queue length does an incoming req see
system.mem_ctrls.wrQLenPdf::45                      0                       # What write queue length does an incoming req see
system.mem_ctrls.wrQLenPdf::46                      0                       # What write queue length does an incoming req see
system.mem_ctrls.wrQLenPdf::47                      0                       # What write queue length does an incoming req see
system.mem_ctrls.wrQLenPdf::48                      0                       # What write queue length does an incoming req see
system.mem_ctrls.wrQLenPdf::49                      0                       # What write queue length does an incoming req see
system.mem_ctrls.wrQLenPdf::50                      0                       # What write queue length does an incoming req see
system.mem_ctrls.wrQLenPdf::51                      0                       # What write queue length does an incoming req see
system.mem_ctrls.wrQLenPdf::52                      0                       # What write queue length does an incoming req see
system.mem_ctrls.wrQLenPdf::53                      0                       # What write queue length does an incoming req see
system.mem_ctrls.wrQLenPdf::54                      0                       # What write queue length does an incoming req see
system.mem_ctrls.wrQLenPdf::55                      0                       # What write queue length does an incoming req see
system.mem_ctrls.wrQLenPdf::56                      0                       # What write queue length does an incoming req see
system.mem_ctrls.wrQLenPdf::57                      0                       # What write queue length does an incoming req see
system.mem_ctrls.wrQLenPdf::58                      0                       # What write queue length does an incoming req see
system.mem_ctrls.wrQLenPdf::59                      0                       # What write queue length does an incoming req see
system.mem_ctrls.wrQLenPdf::60                      0                       # What write queue length does an incoming req see
system.mem_ctrls.wrQLenPdf::61                      0                       # What write queue length does an incoming req see
system.mem_ctrls.wrQLenPdf::62                      0                       # What write queue length does an incoming req see
system.mem_ctrls.wrQLenPdf::63                      0                       # What write queue length does an incoming req see
system.mem_ctrls.bytesPerActivate::samples          273                       # Bytes accessed per row activation
system.mem_ctrls.bytesPerActivate::mean    550.212454                       # Bytes accessed per row activation
system.mem_ctrls.bytesPerActivate::gmean   340.377180                       # Bytes accessed per row activation
system.mem_ctrls.bytesPerActivate::stdev   421.424858                       # Bytes accessed per row activation
system.mem_ctrls.bytesPerActivate::0-127           54     19.78%     19.78% # Bytes accessed per row activation
system.mem_ctrls.bytesPerActivate::128-255           51     18.68%     38.46% # Bytes accessed per row activation
system.mem_ctrls.bytesPerActivate::256-383           26      9.52%     47.99% # Bytes accessed per row activation
system.mem_ctrls.bytesPerActivate::384-511            9      3.30%     51.28% # Bytes accessed per row activation
system.mem_ctrls.bytesPerActivate::512-639            7      2.56%     53.85% # Bytes accessed per row activation
system.mem_ctrls.bytesPerActivate::640-767            8      2.93%     56.78% # Bytes accessed per row activation
system.mem_ctrls.bytesPerActivate::768-895            4      1.47%     58.24% # Bytes accessed per row activation
system.mem_ctrls.bytesPerActivate::896-1023            8      2.93%     61.17% # Bytes accessed per row activation
system.mem_ctrls.bytesPerActivate::1024-1151          106     38.83%    100.00% # Bytes accessed per row activation
system.mem_ctrls.bytesPerActivate::total          273                       # Bytes accessed per row activation
system.mem_ctrls.totQLat                     13614250                       # Total ticks spent queuing
system.mem_ctrls.totMemAccLat                58108000                       # Total ticks spent from burst creation until serviced by the DRAM
system.mem_ctrls.totBusLat                   11865000                       # Total ticks spent in databus transfers
system.mem_ctrls.avgQLat                      5737.15                       # Average queueing delay per DRAM burst
system.mem_ctrls.avgBusLat                    5000.00                       # Average bus latency per DRAM burst
system.mem_ctrls.avgMemAccLat                24487.15                       # Average memory access latency per DRAM burst
system.mem_ctrls.avgRdBW                       236.85                       # Average DRAM read bandwidth in MiByte/s
system.mem_ctrls.avgWrBW                         0.00                       # Average achieved write bandwidth in MiByte/s
system.mem_ctrls.avgRdBWSys                    236.85                       # Average system read bandwidth in MiByte/s
system.mem_ctrls.avgWrBWSys                      0.00                       # Average system write bandwidth in MiByte/s
system.mem_ctrls.peakBW                      12800.00                       # Theoretical peak bandwidth in MiByte/s
system.mem_ctrls.busUtil                         1.85                       # Data bus utilization in percentage
system.mem_ctrls.busUtilRead                     1.85                       # Data bus utilization in percentage for reads
system.mem_ctrls.busUtilWrite                    0.00                       # Data bus utilization in percentage for writes
system.mem_ctrls.avgRdQLen                       1.11                       # Average read queue length when enqueuing
system.mem_ctrls.avgWrQLen                       0.00                       # Average write queue length when enqueuing
system.mem_ctrls.readRowHits                     2090                       # Number of row buffer hits during reads
system.mem_ctrls.writeRowHits                       0                       # Number of row buffer hits during writes
system.mem_ctrls.readRowHitRate                 88.07                       # Row buffer hit rate for reads
system.mem_ctrls.writeRowHitRate                  nan                       # Row buffer hit rate for writes
system.mem_ctrls.avgGap                     270191.95                       # Average gap between requests
system.mem_ctrls.pageHitRate                    88.07                       # Row buffer hit rate, read and write combined
system.mem_ctrls_0.actEnergy                  1338120                       # Energy for activate commands per rank (pJ)
system.mem_ctrls_0.preEnergy                   730125                       # Energy for precharge commands per rank (pJ)
system.mem_ctrls_0.readEnergy                 9882600                       # Energy for read commands per rank (pJ)
system.mem_ctrls_0.writeEnergy                      0                       # Energy for write commands per rank (pJ)
system.mem_ctrls_0.refreshEnergy             41701920                       # Energy for refresh commands per rank (pJ)
system.mem_ctrls_0.actBackEnergy             64200240                       # Energy for active background per rank (pJ)
system.mem_ctrls_0.preBackEnergy            326923500                       # Energy for precharge background per rank (pJ)
system.mem_ctrls_0.totalEnergy              444776505                       # Total energy per rank (pJ)
system.mem_ctrls_0.averagePower            696.342373                       # Core power per rank (mW)
system.mem_ctrls_0.memoryStateTime::IDLE    543310750                       # Time in different power states
system.mem_ctrls_0.memoryStateTime::REF      21320000                       # Time in different power states
system.mem_ctrls_0.memoryStateTime::PRE_PDN            0                       # Time in different power states
system.mem_ctrls_0.memoryStateTime::ACT      74179250                       # Time in different power states
system.mem_ctrls_0.memoryStateTime::ACT_PDN            0                       # Time in different power states
system.mem_ctrls_1.actEnergy                   695520                       # Energy for activate commands per rank (pJ)
system.mem_ctrls_1.preEnergy                   379500                       # Energy for precharge commands per rank (pJ)
system.mem_ctrls_1.readEnergy                 8268000                       # Energy for read commands per rank (pJ)
system.mem_ctrls_1.writeEnergy                      0                       # Energy for write commands per rank (pJ)
system.mem_ctrls_1.refreshEnergy             41701920                       # Energy for refresh commands per rank (pJ)
system.mem_ctrls_1.actBackEnergy             65859795                       # Energy for active background per rank (pJ)
system.mem_ctrls_1.preBackEnergy            325467750                       # Energy for precharge background per rank (pJ)
system.mem_ctrls_1.totalEnergy              442372485                       # Total energy per rank (pJ)
system.mem_ctrls_1.averagePower            692.578638                       # Core power per rank (mW)
system.mem_ctrls_1.memoryStateTime::IDLE    540978000                       # Time in different power states
system.mem_ctrls_1.memoryStateTime::REF      21320000                       # Time in different power states
system.mem_ctrls_1.memoryStateTime::PRE_PDN            0                       # Time in different power states
system.mem_ctrls_1.memoryStateTime::ACT      76802500                       # Time in different power states
system.mem_ctrls_1.memoryStateTime::ACT_PDN            0                       # Time in different power states
system.cpu0.branchPred.lookups                 169109                       # Number of BP lookups
system.cpu0.branchPred.condPredicted           166386                       # Number of conditional branches predicted
system.cpu0.branchPred.condIncorrect             3253                       # Number of conditional branches incorrect
system.cpu0.branchPred.BTBLookups              166380                       # Number of BTB lookups
system.cpu0.branchPred.BTBHits                 162419                       # Number of BTB hits
system.cpu0.branchPred.BTBCorrect                   0                       # Number of correct BTB predictions (this stat may not work properly.
system.cpu0.branchPred.BTBHitPct            97.619305                       # BTB Hit Percentage
system.cpu0.branchPred.usedRAS                    981                       # Number of times the RAS was used to get a target.
system.cpu0.branchPred.RASInCorrect                15                       # Number of incorrect RAS predictions.
system.cpu_voltage_domain.voltage                   1                       # Voltage in Volts
system.cpu_clk_domain.clock                       500                       # Clock period in ticks
system.cpu0.dstage2_mmu.stage2_tlb.walker.walks            0                       # Table walker walks requested
system.cpu0.dstage2_mmu.stage2_tlb.walker.walkRequestOrigin_Requested::Data            0                       # Table walker requests started/completed, data/inst
system.cpu0.dstage2_mmu.stage2_tlb.walker.walkRequestOrigin_Requested::Inst            0                       # Table walker requests started/completed, data/inst
system.cpu0.dstage2_mmu.stage2_tlb.walker.walkRequestOrigin_Requested::total            0                       # Table walker requests started/completed, data/inst
system.cpu0.dstage2_mmu.stage2_tlb.walker.walkRequestOrigin_Completed::Data            0                       # Table walker requests started/completed, data/inst
system.cpu0.dstage2_mmu.stage2_tlb.walker.walkRequestOrigin_Completed::Inst            0                       # Table walker requests started/completed, data/inst
system.cpu0.dstage2_mmu.stage2_tlb.walker.walkRequestOrigin_Completed::total            0                       # Table walker requests started/completed, data/inst
system.cpu0.dstage2_mmu.stage2_tlb.walker.walkRequestOrigin::total            0                       # Table walker requests started/completed, data/inst
system.cpu0.dstage2_mmu.stage2_tlb.inst_hits            0                       # ITB inst hits
system.cpu0.dstage2_mmu.stage2_tlb.inst_misses            0                       # ITB inst misses
system.cpu0.dstage2_mmu.stage2_tlb.read_hits            0                       # DTB read hits
system.cpu0.dstage2_mmu.stage2_tlb.read_misses            0                       # DTB read misses
system.cpu0.dstage2_mmu.stage2_tlb.write_hits            0                       # DTB write hits
system.cpu0.dstage2_mmu.stage2_tlb.write_misses            0                       # DTB write misses
system.cpu0.dstage2_mmu.stage2_tlb.flush_tlb            0                       # Number of times complete TLB was flushed
system.cpu0.dstage2_mmu.stage2_tlb.flush_tlb_mva            0                       # Number of times TLB was flushed by MVA
system.cpu0.dstage2_mmu.stage2_tlb.flush_tlb_mva_asid            0                       # Number of times TLB was flushed by MVA & ASID
system.cpu0.dstage2_mmu.stage2_tlb.flush_tlb_asid            0                       # Number of times TLB was flushed by ASID
system.cpu0.dstage2_mmu.stage2_tlb.flush_entries            0                       # Number of entries that have been flushed from TLB
system.cpu0.dstage2_mmu.stage2_tlb.align_faults            0                       # Number of TLB faults due to alignment restrictions
system.cpu0.dstage2_mmu.stage2_tlb.prefetch_faults            0                       # Number of TLB faults due to prefetch
system.cpu0.dstage2_mmu.stage2_tlb.domain_faults            0                       # Number of TLB faults due to domain restrictions
system.cpu0.dstage2_mmu.stage2_tlb.perms_faults            0                       # Number of TLB faults due to permissions restrictions
system.cpu0.dstage2_mmu.stage2_tlb.read_accesses            0                       # DTB read accesses
system.cpu0.dstage2_mmu.stage2_tlb.write_accesses            0                       # DTB write accesses
system.cpu0.dstage2_mmu.stage2_tlb.inst_accesses            0                       # ITB inst accesses
system.cpu0.dstage2_mmu.stage2_tlb.hits             0                       # DTB hits
system.cpu0.dstage2_mmu.stage2_tlb.misses            0                       # DTB misses
system.cpu0.dstage2_mmu.stage2_tlb.accesses            0                       # DTB accesses
system.cpu0.dtb.walker.walks                        0                       # Table walker walks requested
system.cpu0.dtb.walker.walkRequestOrigin_Requested::Data            0                       # Table walker requests started/completed, data/inst
system.cpu0.dtb.walker.walkRequestOrigin_Requested::Inst            0                       # Table walker requests started/completed, data/inst
system.cpu0.dtb.walker.walkRequestOrigin_Requested::total            0                       # Table walker requests started/completed, data/inst
system.cpu0.dtb.walker.walkRequestOrigin_Completed::Data            0                       # Table walker requests started/completed, data/inst
system.cpu0.dtb.walker.walkRequestOrigin_Completed::Inst            0                       # Table walker requests started/completed, data/inst
system.cpu0.dtb.walker.walkRequestOrigin_Completed::total            0                       # Table walker requests started/completed, data/inst
system.cpu0.dtb.walker.walkRequestOrigin::total            0                       # Table walker requests started/completed, data/inst
system.cpu0.dtb.inst_hits                           0                       # ITB inst hits
system.cpu0.dtb.inst_misses                         0                       # ITB inst misses
system.cpu0.dtb.read_hits                           0                       # DTB read hits
system.cpu0.dtb.read_misses                         0                       # DTB read misses
system.cpu0.dtb.write_hits                          0                       # DTB write hits
system.cpu0.dtb.write_misses                        0                       # DTB write misses
system.cpu0.dtb.flush_tlb                           0                       # Number of times complete TLB was flushed
system.cpu0.dtb.flush_tlb_mva                       0                       # Number of times TLB was flushed by MVA
system.cpu0.dtb.flush_tlb_mva_asid                  0                       # Number of times TLB was flushed by MVA & ASID
system.cpu0.dtb.flush_tlb_asid                      0                       # Number of times TLB was flushed by ASID
system.cpu0.dtb.flush_entries                       0                       # Number of entries that have been flushed from TLB
system.cpu0.dtb.align_faults                        0                       # Number of TLB faults due to alignment restrictions
system.cpu0.dtb.prefetch_faults                     0                       # Number of TLB faults due to prefetch
system.cpu0.dtb.domain_faults                       0                       # Number of TLB faults due to domain restrictions
system.cpu0.dtb.perms_faults                        0                       # Number of TLB faults due to permissions restrictions
system.cpu0.dtb.read_accesses                       0                       # DTB read accesses
system.cpu0.dtb.write_accesses                      0                       # DTB write accesses
system.cpu0.dtb.inst_accesses                       0                       # ITB inst accesses
system.cpu0.dtb.hits                                0                       # DTB hits
system.cpu0.dtb.misses                              0                       # DTB misses
system.cpu0.dtb.accesses                            0                       # DTB accesses
system.cpu0.istage2_mmu.stage2_tlb.walker.walks            0                       # Table walker walks requested
system.cpu0.istage2_mmu.stage2_tlb.walker.walkRequestOrigin_Requested::Data            0                       # Table walker requests started/completed, data/inst
system.cpu0.istage2_mmu.stage2_tlb.walker.walkRequestOrigin_Requested::Inst            0                       # Table walker requests started/completed, data/inst
system.cpu0.istage2_mmu.stage2_tlb.walker.walkRequestOrigin_Requested::total            0                       # Table walker requests started/completed, data/inst
system.cpu0.istage2_mmu.stage2_tlb.walker.walkRequestOrigin_Completed::Data            0                       # Table walker requests started/completed, data/inst
system.cpu0.istage2_mmu.stage2_tlb.walker.walkRequestOrigin_Completed::Inst            0                       # Table walker requests started/completed, data/inst
system.cpu0.istage2_mmu.stage2_tlb.walker.walkRequestOrigin_Completed::total            0                       # Table walker requests started/completed, data/inst
system.cpu0.istage2_mmu.stage2_tlb.walker.walkRequestOrigin::total            0                       # Table walker requests started/completed, data/inst
system.cpu0.istage2_mmu.stage2_tlb.inst_hits            0                       # ITB inst hits
system.cpu0.istage2_mmu.stage2_tlb.inst_misses            0                       # ITB inst misses
system.cpu0.istage2_mmu.stage2_tlb.read_hits            0                       # DTB read hits
system.cpu0.istage2_mmu.stage2_tlb.read_misses            0                       # DTB read misses
system.cpu0.istage2_mmu.stage2_tlb.write_hits            0                       # DTB write hits
system.cpu0.istage2_mmu.stage2_tlb.write_misses            0                       # DTB write misses
system.cpu0.istage2_mmu.stage2_tlb.flush_tlb            0                       # Number of times complete TLB was flushed
system.cpu0.istage2_mmu.stage2_tlb.flush_tlb_mva            0                       # Number of times TLB was flushed by MVA
system.cpu0.istage2_mmu.stage2_tlb.flush_tlb_mva_asid            0                       # Number of times TLB was flushed by MVA & ASID
system.cpu0.istage2_mmu.stage2_tlb.flush_tlb_asid            0                       # Number of times TLB was flushed by ASID
system.cpu0.istage2_mmu.stage2_tlb.flush_entries            0                       # Number of entries that have been flushed from TLB
system.cpu0.istage2_mmu.stage2_tlb.align_faults            0                       # Number of TLB faults due to alignment restrictions
system.cpu0.istage2_mmu.stage2_tlb.prefetch_faults            0                       # Number of TLB faults due to prefetch
system.cpu0.istage2_mmu.stage2_tlb.domain_faults            0                       # Number of TLB faults due to domain restrictions
system.cpu0.istage2_mmu.stage2_tlb.perms_faults            0                       # Number of TLB faults due to permissions restrictions
system.cpu0.istage2_mmu.stage2_tlb.read_accesses            0                       # DTB read accesses
system.cpu0.istage2_mmu.stage2_tlb.write_accesses            0                       # DTB write accesses
system.cpu0.istage2_mmu.stage2_tlb.inst_accesses            0                       # ITB inst accesses
system.cpu0.istage2_mmu.stage2_tlb.hits             0                       # DTB hits
system.cpu0.istage2_mmu.stage2_tlb.misses            0                       # DTB misses
system.cpu0.istage2_mmu.stage2_tlb.accesses            0                       # DTB accesses
system.cpu0.itb.walker.walks                        0                       # Table walker walks requested
system.cpu0.itb.walker.walkRequestOrigin_Requested::Data            0                       # Table walker requests started/completed, data/inst
system.cpu0.itb.walker.walkRequestOrigin_Requested::Inst            0                       # Table walker requests started/completed, data/inst
system.cpu0.itb.walker.walkRequestOrigin_Requested::total            0                       # Table walker requests started/completed, data/inst
system.cpu0.itb.walker.walkRequestOrigin_Completed::Data            0                       # Table walker requests started/completed, data/inst
system.cpu0.itb.walker.walkRequestOrigin_Completed::Inst            0                       # Table walker requests started/completed, data/inst
system.cpu0.itb.walker.walkRequestOrigin_Completed::total            0                       # Table walker requests started/completed, data/inst
system.cpu0.itb.walker.walkRequestOrigin::total            0                       # Table walker requests started/completed, data/inst
system.cpu0.itb.inst_hits                           0                       # ITB inst hits
system.cpu0.itb.inst_misses                         0                       # ITB inst misses
system.cpu0.itb.read_hits                           0                       # DTB read hits
system.cpu0.itb.read_misses                         0                       # DTB read misses
system.cpu0.itb.write_hits                          0                       # DTB write hits
system.cpu0.itb.write_misses                        0                       # DTB write misses
system.cpu0.itb.flush_tlb                           0                       # Number of times complete TLB was flushed
system.cpu0.itb.flush_tlb_mva                       0                       # Number of times TLB was flushed by MVA
system.cpu0.itb.flush_tlb_mva_asid                  0                       # Number of times TLB was flushed by MVA & ASID
system.cpu0.itb.flush_tlb_asid                      0                       # Number of times TLB was flushed by ASID
system.cpu0.itb.flush_entries                       0                       # Number of entries that have been flushed from TLB
system.cpu0.itb.align_faults                        0                       # Number of TLB faults due to alignment restrictions
system.cpu0.itb.prefetch_faults                     0                       # Number of TLB faults due to prefetch
system.cpu0.itb.domain_faults                       0                       # Number of TLB faults due to domain restrictions
system.cpu0.itb.perms_faults                        0                       # Number of TLB faults due to permissions restrictions
system.cpu0.itb.read_accesses                       0                       # DTB read accesses
system.cpu0.itb.write_accesses                      0                       # DTB write accesses
system.cpu0.itb.inst_accesses                       0                       # ITB inst accesses
system.cpu0.itb.hits                                0                       # DTB hits
system.cpu0.itb.misses                              0                       # DTB misses
system.cpu0.itb.accesses                            0                       # DTB accesses
system.cpu0.workload.num_syscalls                  20                       # Number of system calls
system.cpu0.numCycles                         1282419                       # number of cpu cycles simulated
system.cpu0.numWorkItemsStarted                     0                       # number of work items this cpu started
system.cpu0.numWorkItemsCompleted                   0                       # number of work items this cpu completed
system.cpu0.fetch.icacheStallCycles            325692                       # Number of cycles fetch is stalled on an Icache miss
system.cpu0.fetch.Insts                       2368531                       # Number of instructions fetch has processed
system.cpu0.fetch.Branches                     169109                       # Number of branches that fetch encountered
system.cpu0.fetch.predictedBranches            163400                       # Number of branches that fetch has predicted taken
system.cpu0.fetch.Cycles                       909200                       # Number of cycles fetch has run and was not squashing or blocked
system.cpu0.fetch.SquashCycles                   6605                       # Number of cycles fetch has spent squashing
system.cpu0.fetch.PendingTrapStallCycles            4                       # Number of stall cycles due to pending traps
system.cpu0.fetch.CacheLines                   309260                       # Number of cache lines fetched
system.cpu0.fetch.IcacheSquashes                  784                       # Number of outstanding Icache misses that were squashed
system.cpu0.fetch.rateDist::samples           1238198                       # Number of instructions fetched each cycle (Total)
system.cpu0.fetch.rateDist::mean             1.940998                       # Number of instructions fetched each cycle (Total)
system.cpu0.fetch.rateDist::stdev            2.943027                       # Number of instructions fetched each cycle (Total)
system.cpu0.fetch.rateDist::underflows              0      0.00%      0.00% # Number of instructions fetched each cycle (Total)
system.cpu0.fetch.rateDist::0                  785567     63.44%     63.44% # Number of instructions fetched each cycle (Total)
system.cpu0.fetch.rateDist::1                   46201      3.73%     67.18% # Number of instructions fetched each cycle (Total)
system.cpu0.fetch.rateDist::2                   36028      2.91%     70.09% # Number of instructions fetched each cycle (Total)
system.cpu0.fetch.rateDist::3                   45666      3.69%     73.77% # Number of instructions fetched each cycle (Total)
system.cpu0.fetch.rateDist::4                   39685      3.21%     76.98% # Number of instructions fetched each cycle (Total)
system.cpu0.fetch.rateDist::5                   31965      2.58%     79.56% # Number of instructions fetched each cycle (Total)
system.cpu0.fetch.rateDist::6                   42015      3.39%     82.95% # Number of instructions fetched each cycle (Total)
system.cpu0.fetch.rateDist::7                  111138      8.98%     91.93% # Number of instructions fetched each cycle (Total)
system.cpu0.fetch.rateDist::8                   99933      8.07%    100.00% # Number of instructions fetched each cycle (Total)
system.cpu0.fetch.rateDist::overflows               0      0.00%    100.00% # Number of instructions fetched each cycle (Total)
system.cpu0.fetch.rateDist::min_value               0                       # Number of instructions fetched each cycle (Total)
system.cpu0.fetch.rateDist::max_value               8                       # Number of instructions fetched each cycle (Total)
system.cpu0.fetch.rateDist::total             1238198                       # Number of instructions fetched each cycle (Total)
system.cpu0.fetch.branchRate                 0.131867                       # Number of branch fetches per cycle
system.cpu0.fetch.rate                       1.846924                       # Number of inst fetches per cycle
system.cpu0.decode.IdleCycles                  119126                       # Number of cycles decode is idle
system.cpu0.decode.BlockedCycles               821183                       # Number of cycles decode is blocked
system.cpu0.decode.RunCycles                    45425                       # Number of cycles decode is running
system.cpu0.decode.UnblockCycles               249506                       # Number of cycles decode is unblocking
system.cpu0.decode.SquashCycles                  2958                       # Number of cycles decode is squashing
system.cpu0.decode.BranchResolved                1252                       # Number of times decode resolved a branch
system.cpu0.decode.BranchMispred                  355                       # Number of times decode detected a branch misprediction
system.cpu0.decode.DecodedInsts               2312056                       # Number of instructions handled by decode
system.cpu0.decode.SquashedInsts                 1329                       # Number of squashed instructions handled by decode
system.cpu0.rename.SquashCycles                  2958                       # Number of cycles rename is squashing
system.cpu0.rename.IdleCycles                  192872                       # Number of cycles rename is idle
system.cpu0.rename.BlockCycles                  77258                       # Number of cycles rename is blocking
system.cpu0.rename.serializeStallCycles          8141                       # count of cycles rename stalled for serializing inst
system.cpu0.rename.RunCycles                   220528                       # Number of cycles rename is running
system.cpu0.rename.UnblockCycles               736441                       # Number of cycles rename is unblocking
system.cpu0.rename.RenamedInsts               2303406                       # Number of instructions processed by rename
system.cpu0.rename.ROBFullEvents                   15                       # Number of times rename has blocked due to ROB full
system.cpu0.rename.IQFullEvents                580787                       # Number of times rename has blocked due to IQ full
system.cpu0.rename.LQFullEvents                 15003                       # Number of times rename has blocked due to LQ full
system.cpu0.rename.SQFullEvents                119315                       # Number of times rename has blocked due to SQ full
system.cpu0.rename.RenamedOperands            3000624                       # Number of destination operands rename has renamed
system.cpu0.rename.RenameLookups             11383873                       # Number of register rename lookups that rename has made
system.cpu0.rename.int_rename_lookups         3810387                       # Number of integer rename lookups
system.cpu0.rename.fp_rename_lookups               22                       # Number of floating rename lookups
system.cpu0.rename.CommittedMaps              2805899                       # Number of HB maps that are committed
system.cpu0.rename.UndoneMaps                  194725                       # Number of HB maps that are undone due to squashing
system.cpu0.rename.serializingInsts               141                       # count of serializing insts renamed
system.cpu0.rename.tempSerializingInsts           140                       # count of temporary serializing insts renamed
system.cpu0.rename.skidInsts                  1190998                       # count of insts added to the skid buffer
system.cpu0.memDep0.insertedLoads              571722                       # Number of loads inserted to the mem dependence unit.
system.cpu0.memDep0.insertedStores              54334                       # Number of stores inserted to the mem dependence unit.
system.cpu0.memDep0.conflictingLoads             4591                       # Number of conflicting loads.
system.cpu0.memDep0.conflictingStores             425                       # Number of conflicting stores.
system.cpu0.iq.iqInstsAdded                   2290335                       # Number of instructions added to the IQ (excludes non-spec)
system.cpu0.iq.iqNonSpecInstsAdded                279                       # Number of non-speculative instructions added to the IQ
system.cpu0.iq.iqInstsIssued                  2164886                       # Number of instructions issued
system.cpu0.iq.iqSquashedInstsIssued             8587                       # Number of squashed instructions issued
system.cpu0.iq.iqSquashedInstsExamined         140031                       # Number of squashed instructions iterated over during squash; mainly for profiling
system.cpu0.iq.iqSquashedOperandsExamined       643470                       # Number of squashed operands that are examined and possibly removed from graph
system.cpu0.iq.iqSquashedNonSpecRemoved            95                       # Number of squashed non-spec instructions that were removed
system.cpu0.iq.issued_per_cycle::samples      1238198                       # Number of insts issued each cycle
system.cpu0.iq.issued_per_cycle::mean        1.748417                       # Number of insts issued each cycle
system.cpu0.iq.issued_per_cycle::stdev       0.652722                       # Number of insts issued each cycle
system.cpu0.iq.issued_per_cycle::underflows            0      0.00%      0.00% # Number of insts issued each cycle
system.cpu0.iq.issued_per_cycle::0             147195     11.89%     11.89% # Number of insts issued each cycle
system.cpu0.iq.issued_per_cycle::1              17120      1.38%     13.27% # Number of insts issued each cycle
system.cpu0.iq.issued_per_cycle::2            1073883     86.73%    100.00% # Number of insts issued each cycle
system.cpu0.iq.issued_per_cycle::overflows            0      0.00%    100.00% # Number of insts issued each cycle
system.cpu0.iq.issued_per_cycle::min_value            0                       # Number of insts issued each cycle
system.cpu0.iq.issued_per_cycle::max_value            2                       # Number of insts issued each cycle
system.cpu0.iq.issued_per_cycle::total        1238198                       # Number of insts issued each cycle
system.cpu0.iq.fu_full::No_OpClass                  0                       # attempts to use FU when none available
system.cpu0.iq.fu_full::IntAlu                      0                       # attempts to use FU when none available
system.cpu0.iq.fu_full::IntMult                     0                       # attempts to use FU when none available
system.cpu0.iq.fu_full::IntDiv                      0                       # attempts to use FU when none available
system.cpu0.iq.fu_full::FloatAdd                    0                       # attempts to use FU when none available
system.cpu0.iq.fu_full::FloatCmp                    0                       # attempts to use FU when none available
system.cpu0.iq.fu_full::FloatCvt                    0                       # attempts to use FU when none available
system.cpu0.iq.fu_full::FloatMult                   0                       # attempts to use FU when none available
system.cpu0.iq.fu_full::FloatDiv                    0                       # attempts to use FU when none available
system.cpu0.iq.fu_full::FloatSqrt                   0                       # attempts to use FU when none available
system.cpu0.iq.fu_full::SimdAdd                     0                       # attempts to use FU when none available
system.cpu0.iq.fu_full::SimdAddAcc                  0                       # attempts to use FU when none available
system.cpu0.iq.fu_full::SimdAlu                     0                       # attempts to use FU when none available
system.cpu0.iq.fu_full::SimdCmp                     0                       # attempts to use FU when none available
system.cpu0.iq.fu_full::SimdCvt                     0                       # attempts to use FU when none available
system.cpu0.iq.fu_full::SimdMisc                    0                       # attempts to use FU when none available
system.cpu0.iq.fu_full::SimdMult                    0                       # attempts to use FU when none available
system.cpu0.iq.fu_full::SimdMultAcc                 0                       # attempts to use FU when none available
system.cpu0.iq.fu_full::SimdShift                   0                       # attempts to use FU when none available
system.cpu0.iq.fu_full::SimdShiftAcc                0                       # attempts to use FU when none available
system.cpu0.iq.fu_full::SimdSqrt                    0                       # attempts to use FU when none available
system.cpu0.iq.fu_full::SimdFloatAdd                0                       # attempts to use FU when none available
system.cpu0.iq.fu_full::SimdFloatAlu                0                       # attempts to use FU when none available
system.cpu0.iq.fu_full::SimdFloatCmp                0                       # attempts to use FU when none available
system.cpu0.iq.fu_full::SimdFloatCvt                0                       # attempts to use FU when none available
system.cpu0.iq.fu_full::SimdFloatDiv                0                       # attempts to use FU when none available
system.cpu0.iq.fu_full::SimdFloatMisc               0                       # attempts to use FU when none available
system.cpu0.iq.fu_full::SimdFloatMult               0                       # attempts to use FU when none available
system.cpu0.iq.fu_full::SimdFloatMultAcc            0                       # attempts to use FU when none available
system.cpu0.iq.fu_full::SimdFloatSqrt               0                       # attempts to use FU when none available
system.cpu0.iq.fu_full::MemRead                     0                       # attempts to use FU when none available
system.cpu0.iq.fu_full::MemWrite                    0                       # attempts to use FU when none available
system.cpu0.iq.fu_full::IprAccess                   0                       # attempts to use FU when none available
system.cpu0.iq.fu_full::InstPrefetch                0                       # attempts to use FU when none available
system.cpu0.iq.FU_type_0::No_OpClass                0      0.00%      0.00% # Type of FU issued
system.cpu0.iq.FU_type_0::IntAlu              1169587     54.03%     54.03% # Type of FU issued
system.cpu0.iq.FU_type_0::IntMult              401594     18.55%     72.58% # Type of FU issued
system.cpu0.iq.FU_type_0::IntDiv                    0      0.00%     72.58% # Type of FU issued
system.cpu0.iq.FU_type_0::FloatAdd                  0      0.00%     72.58% # Type of FU issued
system.cpu0.iq.FU_type_0::FloatCmp                  0      0.00%     72.58% # Type of FU issued
system.cpu0.iq.FU_type_0::FloatCvt                  0      0.00%     72.58% # Type of FU issued
system.cpu0.iq.FU_type_0::FloatMult                 0      0.00%     72.58% # Type of FU issued
system.cpu0.iq.FU_type_0::FloatDiv                  0      0.00%     72.58% # Type of FU issued
system.cpu0.iq.FU_type_0::FloatSqrt                 0      0.00%     72.58% # Type of FU issued
system.cpu0.iq.FU_type_0::SimdAdd                   0      0.00%     72.58% # Type of FU issued
system.cpu0.iq.FU_type_0::SimdAddAcc                0      0.00%     72.58% # Type of FU issued
system.cpu0.iq.FU_type_0::SimdAlu                   0      0.00%     72.58% # Type of FU issued
system.cpu0.iq.FU_type_0::SimdCmp                   0      0.00%     72.58% # Type of FU issued
system.cpu0.iq.FU_type_0::SimdCvt                   0      0.00%     72.58% # Type of FU issued
system.cpu0.iq.FU_type_0::SimdMisc                  0      0.00%     72.58% # Type of FU issued
system.cpu0.iq.FU_type_0::SimdMult                  0      0.00%     72.58% # Type of FU issued
system.cpu0.iq.FU_type_0::SimdMultAcc               0      0.00%     72.58% # Type of FU issued
system.cpu0.iq.FU_type_0::SimdShift                 0      0.00%     72.58% # Type of FU issued
system.cpu0.iq.FU_type_0::SimdShiftAcc              0      0.00%     72.58% # Type of FU issued
system.cpu0.iq.FU_type_0::SimdSqrt                  0      0.00%     72.58% # Type of FU issued
system.cpu0.iq.FU_type_0::SimdFloatAdd              0      0.00%     72.58% # Type of FU issued
system.cpu0.iq.FU_type_0::SimdFloatAlu              0      0.00%     72.58% # Type of FU issued
system.cpu0.iq.FU_type_0::SimdFloatCmp              0      0.00%     72.58% # Type of FU issued
system.cpu0.iq.FU_type_0::SimdFloatCvt              0      0.00%     72.58% # Type of FU issued
system.cpu0.iq.FU_type_0::SimdFloatDiv              0      0.00%     72.58% # Type of FU issued
system.cpu0.iq.FU_type_0::SimdFloatMisc             3      0.00%     72.58% # Type of FU issued
system.cpu0.iq.FU_type_0::SimdFloatMult             0      0.00%     72.58% # Type of FU issued
system.cpu0.iq.FU_type_0::SimdFloatMultAcc            0      0.00%     72.58% # Type of FU issued
system.cpu0.iq.FU_type_0::SimdFloatSqrt             0      0.00%     72.58% # Type of FU issued
system.cpu0.iq.FU_type_0::MemRead              542315     25.05%     97.63% # Type of FU issued
system.cpu0.iq.FU_type_0::MemWrite              51387      2.37%    100.00% # Type of FU issued
system.cpu0.iq.FU_type_0::IprAccess                 0      0.00%    100.00% # Type of FU issued
system.cpu0.iq.FU_type_0::InstPrefetch              0      0.00%    100.00% # Type of FU issued
system.cpu0.iq.FU_type_0::total               2164886                       # Type of FU issued
system.cpu0.iq.rate                          1.688127                       # Inst issue rate
system.cpu0.iq.fu_busy_cnt                          0                       # FU busy when requested
system.cpu0.iq.fu_busy_rate                         0                       # FU busy rate (busy events/executed inst)
system.cpu0.iq.int_inst_queue_reads           5576501                       # Number of integer instruction queue reads
system.cpu0.iq.int_inst_queue_writes          2430660                       # Number of integer instruction queue writes
system.cpu0.iq.int_inst_queue_wakeup_accesses      2159179                       # Number of integer instruction queue wakeup accesses
system.cpu0.iq.fp_inst_queue_reads                 56                       # Number of floating instruction queue reads
system.cpu0.iq.fp_inst_queue_writes                28                       # Number of floating instruction queue writes
system.cpu0.iq.fp_inst_queue_wakeup_accesses           28                       # Number of floating instruction queue wakeup accesses
system.cpu0.iq.int_alu_accesses               2164858                       # Number of integer alu accesses
system.cpu0.iq.fp_alu_accesses                     28                       # Number of floating point alu accesses
system.cpu0.iew.lsq.thread0.forwLoads             102                       # Number of loads that had data forwarded from stores
system.cpu0.iew.lsq.thread0.invAddrLoads            0                       # Number of loads ignored due to an invalid address
system.cpu0.iew.lsq.thread0.squashedLoads        35632                       # Number of loads squashed
system.cpu0.iew.lsq.thread0.ignoredResponses            3                       # Number of memory responses ignored because the instruction is squashed
system.cpu0.iew.lsq.thread0.memOrderViolation           43                       # Number of memory ordering violations
system.cpu0.iew.lsq.thread0.squashedStores         3358                       # Number of stores squashed
system.cpu0.iew.lsq.thread0.invAddrSwpfs            0                       # Number of software prefetches ignored due to an invalid address
system.cpu0.iew.lsq.thread0.blockedLoads            0                       # Number of blocked loads due to partial load-store forwarding
system.cpu0.iew.lsq.thread0.rescheduledLoads           65                       # Number of loads that were rescheduled
system.cpu0.iew.lsq.thread0.cacheBlocked           76                       # Number of times an access to memory failed due to the cache being blocked
system.cpu0.iew.iewIdleCycles                       0                       # Number of cycles IEW is idle
system.cpu0.iew.iewSquashCycles                  2958                       # Number of cycles IEW is squashing
system.cpu0.iew.iewBlockCycles                  17478                       # Number of cycles IEW is blocking
system.cpu0.iew.iewUnblockCycles                  482                       # Number of cycles IEW is unblocking
system.cpu0.iew.iewDispatchedInsts            2290621                       # Number of instructions dispatched to IQ
system.cpu0.iew.iewDispSquashedInsts              105                       # Number of squashed instructions skipped by dispatch
system.cpu0.iew.iewDispLoadInsts               571722                       # Number of dispatched load instructions
system.cpu0.iew.iewDispStoreInsts               54334                       # Number of dispatched store instructions
system.cpu0.iew.iewDispNonSpecInsts               127                       # Number of dispatched non-speculative instructions
system.cpu0.iew.iewIQFullEvents                    26                       # Number of times the IQ has become full, causing a stall
system.cpu0.iew.iewLSQFullEvents                  448                       # Number of times the LSQ has become full, causing a stall
system.cpu0.iew.memOrderViolationEvents            43                       # Number of memory order violations
system.cpu0.iew.predictedTakenIncorrect          2338                       # Number of branches that were predicted taken incorrectly
system.cpu0.iew.predictedNotTakenIncorrect          610                       # Number of branches that were predicted not taken incorrectly
system.cpu0.iew.branchMispredicts                2948                       # Number of branch mispredicts detected at execute
system.cpu0.iew.iewExecutedInsts              2162345                       # Number of executed instructions
system.cpu0.iew.iewExecLoadInsts               540042                       # Number of load instructions executed
system.cpu0.iew.iewExecSquashedInsts             2541                       # Number of squashed instructions skipped in execute
system.cpu0.iew.exec_swp                            0                       # number of swp insts executed
system.cpu0.iew.exec_nop                            7                       # number of nop insts executed
system.cpu0.iew.exec_refs                      591322                       # number of memory reference insts executed
system.cpu0.iew.exec_branches                  149188                       # Number of branches executed
system.cpu0.iew.exec_stores                     51280                       # Number of stores executed
system.cpu0.iew.exec_rate                    1.686145                       # Inst execution rate
system.cpu0.iew.wb_sent                       2159358                       # cumulative count of insts sent to commit
system.cpu0.iew.wb_count                      2159207                       # cumulative count of insts written-back
system.cpu0.iew.wb_producers                  1947750                       # num instructions producing a value
system.cpu0.iew.wb_consumers                  3350934                       # num instructions consuming a value
system.cpu0.iew.wb_penalized                        0                       # number of instrctions required to write to 'other' IQ
system.cpu0.iew.wb_rate                      1.683699                       # insts written-back per cycle
system.cpu0.iew.wb_fanout                    0.581256                       # average fanout of values written-back
system.cpu0.iew.wb_penalized_rate                   0                       # fraction of instructions written-back that wrote to 'other' IQ
system.cpu0.commit.commitSquashedInsts         140044                       # The number of squashed insts skipped by commit
system.cpu0.commit.commitNonSpecStalls            184                       # The number of times commit has been forced to stall to communicate backwards
system.cpu0.commit.branchMispredicts             2909                       # The number of times a branch was mispredicted
system.cpu0.commit.committed_per_cycle::samples      1218763                       # Number of insts commited each cycle
system.cpu0.commit.committed_per_cycle::mean     1.764562                       # Number of insts commited each cycle
system.cpu0.commit.committed_per_cycle::stdev     2.462505                       # Number of insts commited each cycle
system.cpu0.commit.committed_per_cycle::underflows            0      0.00%      0.00% # Number of insts commited each cycle
system.cpu0.commit.committed_per_cycle::0       469243     38.50%     38.50% # Number of insts commited each cycle
system.cpu0.commit.committed_per_cycle::1       309363     25.38%     63.88% # Number of insts commited each cycle
system.cpu0.commit.committed_per_cycle::2       220284     18.07%     81.96% # Number of insts commited each cycle
system.cpu0.commit.committed_per_cycle::3        59770      4.90%     86.86% # Number of insts commited each cycle
system.cpu0.commit.committed_per_cycle::4         3678      0.30%     87.17% # Number of insts commited each cycle
system.cpu0.commit.committed_per_cycle::5         6352      0.52%     87.69% # Number of insts commited each cycle
system.cpu0.commit.committed_per_cycle::6        10142      0.83%     88.52% # Number of insts commited each cycle
system.cpu0.commit.committed_per_cycle::7         5430      0.45%     88.96% # Number of insts commited each cycle
system.cpu0.commit.committed_per_cycle::8       134501     11.04%    100.00% # Number of insts commited each cycle
system.cpu0.commit.committed_per_cycle::overflows            0      0.00%    100.00% # Number of insts commited each cycle
system.cpu0.commit.committed_per_cycle::min_value            0                       # Number of insts commited each cycle
system.cpu0.commit.committed_per_cycle::max_value            8                       # Number of insts commited each cycle
system.cpu0.commit.committed_per_cycle::total      1218763                       # Number of insts commited each cycle
system.cpu0.commit.committedInsts             2120027                       # Number of instructions committed
system.cpu0.commit.committedOps               2150583                       # Number of ops (including micro ops) committed
system.cpu0.commit.swp_count                        0                       # Number of s/w prefetches committed
system.cpu0.commit.refs                        587066                       # Number of memory references committed
system.cpu0.commit.loads                       536090                       # Number of loads committed
system.cpu0.commit.membars                        113                       # Number of memory barriers committed
system.cpu0.commit.branches                    148399                       # Number of branches committed
system.cpu0.commit.fp_insts                        28                       # Number of committed floating point instructions.
system.cpu0.commit.int_insts                  2002749                       # Number of committed integer instructions.
system.cpu0.commit.function_calls                 317                       # Number of function calls committed.
system.cpu0.commit.op_class_0::No_OpClass            0      0.00%      0.00% # Class of committed instruction
system.cpu0.commit.op_class_0::IntAlu         1162058     54.03%     54.03% # Class of committed instruction
system.cpu0.commit.op_class_0::IntMult         401456     18.67%     72.70% # Class of committed instruction
system.cpu0.commit.op_class_0::IntDiv               0      0.00%     72.70% # Class of committed instruction
system.cpu0.commit.op_class_0::FloatAdd             0      0.00%     72.70% # Class of committed instruction
system.cpu0.commit.op_class_0::FloatCmp             0      0.00%     72.70% # Class of committed instruction
system.cpu0.commit.op_class_0::FloatCvt             0      0.00%     72.70% # Class of committed instruction
system.cpu0.commit.op_class_0::FloatMult            0      0.00%     72.70% # Class of committed instruction
system.cpu0.commit.op_class_0::FloatDiv             0      0.00%     72.70% # Class of committed instruction
system.cpu0.commit.op_class_0::FloatSqrt            0      0.00%     72.70% # Class of committed instruction
system.cpu0.commit.op_class_0::SimdAdd              0      0.00%     72.70% # Class of committed instruction
system.cpu0.commit.op_class_0::SimdAddAcc            0      0.00%     72.70% # Class of committed instruction
system.cpu0.commit.op_class_0::SimdAlu              0      0.00%     72.70% # Class of committed instruction
system.cpu0.commit.op_class_0::SimdCmp              0      0.00%     72.70% # Class of committed instruction
system.cpu0.commit.op_class_0::SimdCvt              0      0.00%     72.70% # Class of committed instruction
system.cpu0.commit.op_class_0::SimdMisc             0      0.00%     72.70% # Class of committed instruction
system.cpu0.commit.op_class_0::SimdMult             0      0.00%     72.70% # Class of committed instruction
system.cpu0.commit.op_class_0::SimdMultAcc            0      0.00%     72.70% # Class of committed instruction
system.cpu0.commit.op_class_0::SimdShift            0      0.00%     72.70% # Class of committed instruction
system.cpu0.commit.op_class_0::SimdShiftAcc            0      0.00%     72.70% # Class of committed instruction
system.cpu0.commit.op_class_0::SimdSqrt             0      0.00%     72.70% # Class of committed instruction
system.cpu0.commit.op_class_0::SimdFloatAdd            0      0.00%     72.70% # Class of committed instruction
system.cpu0.commit.op_class_0::SimdFloatAlu            0      0.00%     72.70% # Class of committed instruction
system.cpu0.commit.op_class_0::SimdFloatCmp            0      0.00%     72.70% # Class of committed instruction
system.cpu0.commit.op_class_0::SimdFloatCvt            0      0.00%     72.70% # Class of committed instruction
system.cpu0.commit.op_class_0::SimdFloatDiv            0      0.00%     72.70% # Class of committed instruction
system.cpu0.commit.op_class_0::SimdFloatMisc            3      0.00%     72.70% # Class of committed instruction
system.cpu0.commit.op_class_0::SimdFloatMult            0      0.00%     72.70% # Class of committed instruction
system.cpu0.commit.op_class_0::SimdFloatMultAcc            0      0.00%     72.70% # Class of committed instruction
system.cpu0.commit.op_class_0::SimdFloatSqrt            0      0.00%     72.70% # Class of committed instruction
system.cpu0.commit.op_class_0::MemRead         536090     24.93%     97.63% # Class of committed instruction
system.cpu0.commit.op_class_0::MemWrite         50976      2.37%    100.00% # Class of committed instruction
system.cpu0.commit.op_class_0::IprAccess            0      0.00%    100.00% # Class of committed instruction
system.cpu0.commit.op_class_0::InstPrefetch            0      0.00%    100.00% # Class of committed instruction
system.cpu0.commit.op_class_0::total          2150583                       # Class of committed instruction
system.cpu0.commit.bw_lim_events               134501                       # number cycles where commit BW limit reached
system.cpu0.rob.rob_reads                     3374693                       # The number of ROB reads
system.cpu0.rob.rob_writes                    4600697                       # The number of ROB writes
system.cpu0.timesIdled                            442                       # Number of times that the entire CPU went into an idle state and unscheduled itself
system.cpu0.idleCycles                          44221                       # Total number of cycles that the CPU has spent unscheduled due to idling
system.cpu0.committedInsts                    2120027                       # Number of Instructions Simulated
system.cpu0.committedOps                      2150583                       # Number of Ops (including micro ops) Simulated
system.cpu0.cpi                              0.604907                       # CPI: Cycles Per Instruction
system.cpu0.cpi_total                        0.604907                       # CPI: Total CPI of All Threads
system.cpu0.ipc                              1.653147                       # IPC: Instructions Per Cycle
system.cpu0.ipc_total                        1.653147                       # IPC: Total IPC of All Threads
system.cpu0.int_regfile_reads                 3560659                       # number of integer regfile reads
system.cpu0.int_regfile_writes                1945660                       # number of integer regfile writes
system.cpu0.fp_regfile_reads                      182                       # number of floating regfile reads
system.cpu0.fp_regfile_writes                       6                       # number of floating regfile writes
system.cpu0.cc_regfile_reads                  8098199                       # number of cc regfile reads
system.cpu0.cc_regfile_writes                  869470                       # number of cc regfile writes
system.cpu0.misc_regfile_reads                 592094                       # number of misc regfile reads
system.cpu0.misc_regfile_writes                   114                       # number of misc regfile writes
system.cpu0.dcache.tags.replacements             7455                       # number of replacements
system.cpu0.dcache.tags.tagsinuse          955.773817                       # Cycle average of tags in use
system.cpu0.dcache.tags.total_refs             530417                       # Total number of references to valid blocks.
system.cpu0.dcache.tags.sampled_refs             8478                       # Sample count of references to valid blocks.
[...]
system.l2.overall_avg_miss_latency::cpu0.data 73855.875831                       # average overall miss latency
system.l2.overall_avg_miss_latency::cpu1.inst 69738.636364                       # average overall miss latency
system.l2.overall_avg_miss_latency::cpu1.data        72550                       # average overall miss latency
system.l2.overall_avg_miss_latency::total 74445.683903                       # average overall miss latency
system.l2.blocked_cycles::no_mshrs                  0                       # number of cycles access was blocked
system.l2.blocked_cycles::no_targets                0                       # number of cycles access was blocked
system.l2.blocked::no_mshrs                         0                       # number of cycles access was blocked
system.l2.blocked::no_targets                       0                       # number of cycles access was blocked
system.l2.avg_blocked_cycles::no_mshrs            nan                       # average number of cycles each access was blocked
system.l2.avg_blocked_cycles::no_targets          nan                       # average number of cycles each access was blocked
system.l2.fast_writes                               0                       # number of fast writes performed
system.l2.cache_copies                              0                       # number of cache copies performed
system.l2.ReadReq_mshr_hits::cpu0.inst              2                       # number of ReadReq MSHR hits
system.l2.ReadReq_mshr_hits::cpu0.data             15                       # number of ReadReq MSHR hits
system.l2.ReadReq_mshr_hits::cpu1.inst              6                       # number of ReadReq MSHR hits
system.l2.ReadReq_mshr_hits::cpu1.data              1                       # number of ReadReq MSHR hits
system.l2.ReadReq_mshr_hits::total                 24                       # number of ReadReq MSHR hits
system.l2.demand_mshr_hits::cpu0.inst               2                       # number of demand (read+write) MSHR hits
system.l2.demand_mshr_hits::cpu0.data              15                       # number of demand (read+write) MSHR hits
system.l2.demand_mshr_hits::cpu1.inst               6                       # number of demand (read+write) MSHR hits
system.l2.demand_mshr_hits::cpu1.data               1                       # number of demand (read+write) MSHR hits
system.l2.demand_mshr_hits::total                  24                       # number of demand (read+write) MSHR hits
system.l2.overall_mshr_hits::cpu0.inst              2                       # number of overall MSHR hits
system.l2.overall_mshr_hits::cpu0.data             15                       # number of overall MSHR hits
system.l2.overall_mshr_hits::cpu1.inst              6                       # number of overall MSHR hits
system.l2.overall_mshr_hits::cpu1.data              1                       # number of overall MSHR hits
system.l2.overall_mshr_hits::total                 24                       # number of overall MSHR hits
system.l2.ReadReq_mshr_misses::cpu0.inst          565                       # number of ReadReq MSHR misses
system.l2.ReadReq_mshr_misses::cpu0.data          121                       # number of ReadReq MSHR misses
system.l2.ReadReq_mshr_misses::cpu1.inst           16                       # number of ReadReq MSHR misses
system.l2.ReadReq_mshr_misses::total              702                       # number of ReadReq MSHR misses
system.l2.UpgradeReq_mshr_misses::cpu0.data           10                       # number of UpgradeReq MSHR misses
system.l2.UpgradeReq_mshr_misses::total            10                       # number of UpgradeReq MSHR misses
system.l2.ReadExReq_mshr_misses::cpu0.data         1668                       # number of ReadExReq MSHR misses
system.l2.ReadExReq_mshr_misses::cpu1.data            4                       # number of ReadExReq MSHR misses
system.l2.ReadExReq_mshr_misses::total           1672                       # number of ReadExReq MSHR misses
system.l2.demand_mshr_misses::cpu0.inst           565                       # number of demand (read+write) MSHR misses
system.l2.demand_mshr_misses::cpu0.data          1789                       # number of demand (read+write) MSHR misses
system.l2.demand_mshr_misses::cpu1.inst            16                       # number of demand (read+write) MSHR misses
system.l2.demand_mshr_misses::cpu1.data             4                       # number of demand (read+write) MSHR misses
system.l2.demand_mshr_misses::total              2374                       # number of demand (read+write) MSHR misses
system.l2.overall_mshr_misses::cpu0.inst          565                       # number of overall MSHR misses
system.l2.overall_mshr_misses::cpu0.data         1789                       # number of overall MSHR misses
system.l2.overall_mshr_misses::cpu1.inst           16                       # number of overall MSHR misses
system.l2.overall_mshr_misses::cpu1.data            4                       # number of overall MSHR misses
system.l2.overall_mshr_misses::total             2374                       # number of overall MSHR misses
system.l2.ReadReq_mshr_miss_latency::cpu0.inst     36278750                       # number of ReadReq MSHR miss cycles
system.l2.ReadReq_mshr_miss_latency::cpu0.data      8736750                       # number of ReadReq MSHR miss cycles
system.l2.ReadReq_mshr_miss_latency::cpu1.inst      1013000                       # number of ReadReq MSHR miss cycles
system.l2.ReadReq_mshr_miss_latency::total     46028500                       # number of ReadReq MSHR miss cycles
system.l2.UpgradeReq_mshr_miss_latency::cpu0.data       178510                       # number of UpgradeReq MSHR miss cycles
system.l2.UpgradeReq_mshr_miss_latency::total       178510                       # number of UpgradeReq MSHR miss cycles
system.l2.ReadExReq_mshr_miss_latency::cpu0.data    101136750                       # number of ReadExReq MSHR miss cycles
system.l2.ReadExReq_mshr_miss_latency::cpu1.data       254500                       # number of ReadExReq MSHR miss cycles
system.l2.ReadExReq_mshr_miss_latency::total    101391250                       # number of ReadExReq MSHR miss cycles
system.l2.demand_mshr_miss_latency::cpu0.inst     36278750                       # number of demand (read+write) MSHR miss cycles
system.l2.demand_mshr_miss_latency::cpu0.data    109873500                       # number of demand (read+write) MSHR miss cycles
system.l2.demand_mshr_miss_latency::cpu1.inst      1013000                       # number of demand (read+write) MSHR miss cycles
system.l2.demand_mshr_miss_latency::cpu1.data       254500                       # number of demand (read+write) MSHR miss cycles
system.l2.demand_mshr_miss_latency::total    147419750                       # number of demand (read+write) MSHR miss cycles
system.l2.overall_mshr_miss_latency::cpu0.inst     36278750                       # number of overall MSHR miss cycles
system.l2.overall_mshr_miss_latency::cpu0.data    109873500                       # number of overall MSHR miss cycles
system.l2.overall_mshr_miss_latency::cpu1.inst      1013000                       # number of overall MSHR miss cycles
system.l2.overall_mshr_miss_latency::cpu1.data       254500                       # number of overall MSHR miss cycles
system.l2.overall_mshr_miss_latency::total    147419750                       # number of overall MSHR miss cycles
system.l2.ReadReq_mshr_miss_rate::cpu0.inst     0.863914                       # mshr miss rate for ReadReq accesses
system.l2.ReadReq_mshr_miss_rate::cpu0.data     0.031784                       # mshr miss rate for ReadReq accesses
system.l2.ReadReq_mshr_miss_rate::cpu1.inst     0.320000                       # mshr miss rate for ReadReq accesses
system.l2.ReadReq_mshr_miss_rate::total      0.147758                       # mshr miss rate for ReadReq accesses
system.l2.UpgradeReq_mshr_miss_rate::cpu0.data     0.833333                       # mshr miss rate for UpgradeReq accesses
system.l2.UpgradeReq_mshr_miss_rate::total     0.833333                       # mshr miss rate for UpgradeReq accesses
system.l2.ReadExReq_mshr_miss_rate::cpu0.data     0.356944                       # mshr miss rate for ReadExReq accesses
system.l2.ReadExReq_mshr_miss_rate::cpu1.data     0.001949                       # mshr miss rate for ReadExReq accesses
system.l2.ReadExReq_mshr_miss_rate::total     0.248625                       # mshr miss rate for ReadExReq accesses
system.l2.demand_mshr_miss_rate::cpu0.inst     0.863914                       # mshr miss rate for demand accesses
system.l2.demand_mshr_miss_rate::cpu0.data     0.210967                       # mshr miss rate for demand accesses
system.l2.demand_mshr_miss_rate::cpu1.inst     0.320000                       # mshr miss rate for demand accesses
system.l2.demand_mshr_miss_rate::cpu1.data     0.001745                       # mshr miss rate for demand accesses
system.l2.demand_mshr_miss_rate::total       0.206867                       # mshr miss rate for demand accesses
system.l2.overall_mshr_miss_rate::cpu0.inst     0.863914                       # mshr miss rate for overall accesses
system.l2.overall_mshr_miss_rate::cpu0.data     0.210967                       # mshr miss rate for overall accesses
system.l2.overall_mshr_miss_rate::cpu1.inst     0.320000                       # mshr miss rate for overall accesses
system.l2.overall_mshr_miss_rate::cpu1.data     0.001745                       # mshr miss rate for overall accesses
system.l2.overall_mshr_miss_rate::total      0.206867                       # mshr miss rate for overall accesses
system.l2.ReadReq_avg_mshr_miss_latency::cpu0.inst 64210.176991                       # average ReadReq mshr miss latency
system.l2.ReadReq_avg_mshr_miss_latency::cpu0.data 72204.545455                       # average ReadReq mshr miss latency
system.l2.ReadReq_avg_mshr_miss_latency::cpu1.inst 63312.500000                       # average ReadReq mshr miss latency
system.l2.ReadReq_avg_mshr_miss_latency::total 65567.663818                       # average ReadReq mshr miss latency
system.l2.UpgradeReq_avg_mshr_miss_latency::cpu0.data        17851                       # average UpgradeReq mshr miss latency
system.l2.UpgradeReq_avg_mshr_miss_latency::total        17851                       # average UpgradeReq mshr miss latency
system.l2.ReadExReq_avg_mshr_miss_latency::cpu0.data 60633.543165                       # average ReadExReq mshr miss latency
system.l2.ReadExReq_avg_mshr_miss_latency::cpu1.data        63625                       # average ReadExReq mshr miss latency
system.l2.ReadExReq_avg_mshr_miss_latency::total 60640.699761                       # average ReadExReq mshr miss latency
system.l2.demand_avg_mshr_miss_latency::cpu0.inst 64210.176991                       # average overall mshr miss latency
system.l2.demand_avg_mshr_miss_latency::cpu0.data 61416.154276                       # average overall mshr miss latency
system.l2.demand_avg_mshr_miss_latency::cpu1.inst 63312.500000                       # average overall mshr miss latency
system.l2.demand_avg_mshr_miss_latency::cpu1.data        63625                       # average overall mshr miss latency
system.l2.demand_avg_mshr_miss_latency::total 62097.620051                       # average overall mshr miss latency
system.l2.overall_avg_mshr_miss_latency::cpu0.inst 64210.176991                       # average overall mshr miss latency
system.l2.overall_avg_mshr_miss_latency::cpu0.data 61416.154276                       # average overall mshr miss latency
system.l2.overall_avg_mshr_miss_latency::cpu1.inst 63312.500000                       # average overall mshr miss latency
system.l2.overall_avg_mshr_miss_latency::cpu1.data        63625                       # average overall mshr miss latency
system.l2.overall_avg_mshr_miss_latency::total 62097.620051                       # average overall mshr miss latency
system.l2.no_allocate_misses                        0                       # Number of misses that were no-allocate
system.membus.trans_dist::ReadReq                 701                       # Transaction distribution
system.membus.trans_dist::ReadResp                700                       # Transaction distribution
system.membus.trans_dist::UpgradeReq               13                       # Transaction distribution
system.membus.trans_dist::SCUpgradeReq              2                       # Transaction distribution
system.membus.trans_dist::UpgradeResp              10                       # Transaction distribution
system.membus.trans_dist::ReadExReq              1672                       # Transaction distribution
system.membus.trans_dist::ReadExResp             1672                       # Transaction distribution
system.membus.pkt_count_system.l2.mem_side::system.mem_ctrls.port         4770                       # Packet count per connected master and slave (bytes)
system.membus.pkt_count::total                   4770                       # Packet count per connected master and slave (bytes)
system.membus.pkt_size_system.l2.mem_side::system.mem_ctrls.port       151808                       # Cumulative packet size per connected master and slave (bytes)
system.membus.pkt_size::total                  151808                       # Cumulative packet size per connected master and slave (bytes)
system.membus.snoops                                5                       # Total snoops (count)
system.membus.snoop_fanout::samples              2388                       # Request fanout histogram
system.membus.snoop_fanout::mean                    0                       # Request fanout histogram
system.membus.snoop_fanout::stdev                   0                       # Request fanout histogram
system.membus.snoop_fanout::underflows              0      0.00%      0.00% # Request fanout histogram
system.membus.snoop_fanout::0                    2388    100.00%    100.00% # Request fanout histogram
system.membus.snoop_fanout::1                       0      0.00%    100.00% # Request fanout histogram
system.membus.snoop_fanout::overflows               0      0.00%    100.00% # Request fanout histogram
system.membus.snoop_fanout::min_value               0                       # Request fanout histogram
system.membus.snoop_fanout::max_value               0                       # Request fanout histogram
system.membus.snoop_fanout::total                2388                       # Request fanout histogram
system.membus.reqLayer0.occupancy             2606500                       # Layer occupancy (ticks)
system.membus.reqLayer0.utilization               0.4                       # Layer utilization (%)
system.membus.respLayer1.occupancy           12513740                       # Layer occupancy (ticks)
system.membus.respLayer1.utilization              2.0                       # Layer utilization (%)
system.tol2bus.trans_dist::ReadReq               8785                       # Transaction distribution
system.tol2bus.trans_dist::ReadResp              8783                       # Transaction distribution
system.tol2bus.trans_dist::Writeback             7852                       # Transaction distribution
system.tol2bus.trans_dist::UpgradeReq              15                       # Transaction distribution
system.tol2bus.trans_dist::SCUpgradeReq             3                       # Transaction distribution
system.tol2bus.trans_dist::UpgradeResp             18                       # Transaction distribution
system.tol2bus.trans_dist::ReadExReq             6727                       # Transaction distribution
system.tol2bus.trans_dist::ReadExResp            6727                       # Transaction distribution
system.tol2bus.pkt_count_system.cpu0.icache.mem_side::system.l2.cpu_side         1306                       # Packet count per connected master and slave (bytes)
system.tol2bus.pkt_count_system.cpu0.dcache.mem_side::system.l2.cpu_side        22609                       # Packet count per connected master and slave (bytes)
system.tol2bus.pkt_count_system.cpu1.icache.mem_side::system.l2.cpu_side          100                       # Packet count per connected master and slave (bytes)
system.tol2bus.pkt_count_system.cpu1.dcache.mem_side::system.l2.cpu_side        10854                       # Packet count per connected master and slave (bytes)
system.tol2bus.pkt_count::total                 34869                       # Packet count per connected master and slave (bytes)
system.tol2bus.pkt_size_system.cpu0.icache.mem_side::system.l2.cpu_side        41728                       # Cumulative packet size per connected master and slave (bytes)
system.tol2bus.pkt_size_system.cpu0.dcache.mem_side::system.l2.cpu_side       902272                       # Cumulative packet size per connected master and slave (bytes)
system.tol2bus.pkt_size_system.cpu1.icache.mem_side::system.l2.cpu_side         3200                       # Cumulative packet size per connected master and slave (bytes)
system.tol2bus.pkt_size_system.cpu1.dcache.mem_side::system.l2.cpu_side       289664                       # Cumulative packet size per connected master and slave (bytes)
system.tol2bus.pkt_size::total                1236864                       # Cumulative packet size per connected master and slave (bytes)
system.tol2bus.snoops                            4041                       # Total snoops (count)
system.tol2bus.snoop_fanout::samples            23382                       # Request fanout histogram
system.tol2bus.snoop_fanout::mean                   3                       # Request fanout histogram
system.tol2bus.snoop_fanout::stdev                  0                       # Request fanout histogram
system.tol2bus.snoop_fanout::underflows             0      0.00%      0.00% # Request fanout histogram
system.tol2bus.snoop_fanout::0                      0      0.00%      0.00% # Request fanout histogram
system.tol2bus.snoop_fanout::1                      0      0.00%      0.00% # Request fanout histogram
system.tol2bus.snoop_fanout::2                      0      0.00%      0.00% # Request fanout histogram
system.tol2bus.snoop_fanout::3                  23382    100.00%    100.00% # Request fanout histogram
system.tol2bus.snoop_fanout::4                      0      0.00%    100.00% # Request fanout histogram
system.tol2bus.snoop_fanout::overflows              0      0.00%    100.00% # Request fanout histogram
system.tol2bus.snoop_fanout::min_value              3                       # Request fanout histogram
system.tol2bus.snoop_fanout::max_value              3                       # Request fanout histogram
system.tol2bus.snoop_fanout::total              23382                       # Request fanout histogram
system.tol2bus.reqLayer0.occupancy           19543998                       # Layer occupancy (ticks)
system.tol2bus.reqLayer0.utilization              3.0                       # Layer utilization (%)
system.tol2bus.respLayer0.occupancy           1081748                       # Layer occupancy (ticks)
system.tol2bus.respLayer0.utilization             0.2                       # Layer utilization (%)
system.tol2bus.respLayer1.occupancy          13119746                       # Layer occupancy (ticks)
system.tol2bus.respLayer1.utilization             2.0                       # Layer utilization (%)
system.tol2bus.respLayer4.occupancy             79744                       # Layer occupancy (ticks)
system.tol2bus.respLayer4.utilization             0.0                       # Layer utilization (%)
system.tol2bus.respLayer5.occupancy           9488249                       # Layer occupancy (ticks)
system.tol2bus.respLayer5.utilization             1.5                       # Layer utilization (%)

---------- End Simulation Statistics   ----------
