
---------- Begin Simulation Statistics ----------
sim_seconds                                  0.000667                       # Number of seconds simulated
sim_ticks                                   667264500                       # Number of ticks simulated
final_tick                                  667264500                       # Number of ticks from beginning of simulation (restored from checkpoints and never reset)
sim_freq                                 1000000000000                       # Frequency of simulated ticks
host_inst_rate                                 304258                       # Simulator instruction rate (inst/s)
host_op_rate                                   306664                       # Simulator op (including micro ops) rate (op/s)
host_tick_rate                               49403234                       # Simulator tick rate (ticks/s)
host_mem_usage                                 652576                       # Number of bytes of host memory used
host_seconds                                    13.51                       # Real time elapsed on the host
sim_insts                                     4109449                       # Number of instructions simulated
sim_ops                                       4141947                       # Number of ops (including micro ops) simulated
system.voltage_domain.voltage                       1                       # Voltage in Volts
system.clk_domain.clock                          1000                       # Clock period in ticks
system.mem_ctrls.bytes_read::cpu.inst           35712                       # Number of bytes read from this memory
system.mem_ctrls.bytes_read::cpu.data          114496                       # Number of bytes read from this memory
system.mem_ctrls.bytes_read::total             150208                       # Number of bytes read from this memory
system.mem_ctrls.bytes_inst_read::cpu.inst        35712                       # Number of instructions bytes read from this memory
system.mem_ctrls.bytes_inst_read::total         35712                       # Number of instructions bytes read from this memory
system.mem_ctrls.num_reads::cpu.inst              558                       # Number of read requests responded to by this memory
system.mem_ctrls.num_reads::cpu.data             1789                       # Number of read requests responded to by this memory
system.mem_ctrls.num_reads::total                2347                       # Number of read requests responded to by this memory
system.mem_ctrls.bw_read::cpu.inst           53520006                       # Total read bandwidth from this memory (bytes/s)
system.mem_ctrls.bw_read::cpu.data          171590127                       # Total read bandwidth from this memory (bytes/s)
system.mem_ctrls.bw_read::total             225110132                       # Total read bandwidth from this memory (bytes/s)
system.mem_ctrls.bw_inst_read::cpu.inst      53520006                       # Instruction read bandwidth from this memory (bytes/s)
system.mem_ctrls.bw_inst_read::total         53520006                       # Instruction read bandwidth from this memory (bytes/s)
system.mem_ctrls.bw_total::cpu.inst          53520006                       # Total bandwidth to/from this memory (bytes/s)
system.mem_ctrls.bw_total::cpu.data         171590127                       # Total bandwidth to/from this memory (bytes/s)
system.mem_ctrls.bw_total::total            225110132                       # Total bandwidth to/from this memory (bytes/s)
system.mem_ctrls.readReqs                        2347                       # Number of read requests accepted
system.mem_ctrls.writeReqs                          0                       # Number of write requests accepted
system.mem_ctrls.readBursts                      2347                       # Number of DRAM read bursts, including those serviced by the write queue
system.mem_ctrls.writeBursts                        0                       # Number of DRAM write bursts, including those merged in the write queue
system.mem_ctrls.bytesReadDRAM                 150208                       # Total number of bytes read from DRAM
system.mem_ctrls.bytesReadWrQ                       0                       # Total number of bytes read from write queue
system.mem_ctrls.bytesWritten                       0                       # Total number of bytes written to DRAM
system.mem_ctrls.bytesReadSys                  150208                       # Total read bytes from the system interface side
system.mem_ctrls.bytesWrittenSys                    0                       # Total written bytes from the system interface side
system.mem_ctrls.servicedByWrQ                      0                       # Number of DRAM read bursts serviced by the write queue
system.mem_ctrls.mergedWrBursts                     0                       # Number of DRAM write bursts merged with an existing one
system.mem_ctrls.neitherReadNorWriteReqs            0                       # Number of requests that are neither read nor write
system.mem_ctrls.perBankRdBursts::0               149                       # Per bank write bursts
system.mem_ctrls.perBankRdBursts::1               100                       # Per bank write bursts
system.mem_ctrls.perBankRdBursts::2               128                       # Per bank write bursts
system.mem_ctrls.perBankRdBursts::3               195                       # Per bank write bursts
system.mem_ctrls.perBankRdBursts::4               147                       # Per bank write bursts
system.mem_ctrls.perBankRdBursts::5               148                       # Per bank write bursts
system.mem_ctrls.perBankRdBursts::6               223                       # Per bank write bursts
system.mem_ctrls.perBankRdBursts::7               162                       # Per bank write bursts
system.mem_ctrls.perBankRdBursts::8               142                       # Per bank write bursts
system.mem_ctrls.perBankRdBursts::9               138                       # Per bank write bursts
system.mem_ctrls.perBankRdBursts::10              128                       # Per bank write bursts
system.mem_ctrls.perBankRdBursts::11              142                       # Per bank write bursts
system.mem_ctrls.perBankRdBursts::12              134                       # Per bank write bursts
system.mem_ctrls.perBankRdBursts::13              161                       # Per bank write bursts
system.mem_ctrls.perBankRdBursts::14              166                       # Per bank write bursts
system.mem_ctrls.perBankRdBursts::15               84                       # Per bank write bursts
system.mem_ctrls.perBankWrBursts::0                 0                       # Per bank write bursts
system.mem_ctrls.perBankWrBursts::1                 0                       # Per bank write bursts
system.mem_ctrls.perBankWrBursts::2                 0                       # Per bank write bursts
system.mem_ctrls.perBankWrBursts::3                 0                       # Per bank write bursts
system.mem_ctrls.perBankWrBursts::4                 0                       # Per bank write bursts
system.mem_ctrls.perBankWrBursts::5                 0                       # Per bank write bursts
system.mem_ctrls.perBankWrBursts::6                 0                       # Per bank write bursts
system.mem_ctrls.perBankWrBursts::7                 0                       # Per bank write bursts
system.mem_ctrls.perBankWrBursts::8                 0                       # Per bank write bursts
system.mem_ctrls.perBankWrBursts::9                 0                       # Per bank write bursts
system.mem_ctrls.perBankWrBursts::10                0                       # Per bank write bursts
system.mem_ctrls.perBankWrBursts::11                0                       # Per bank write bursts
system.mem_ctrls.perBankWrBursts::12                0                       # Per bank write bursts
system.mem_ctrls.perBankWrBursts::13                0                       # Per bank write bursts
system.mem_ctrls.perBankWrBursts::14                0                       # Per bank write bursts
system.mem_ctrls.perBankWrBursts::15                0                       # Per bank write bursts
system.mem_ctrls.numRdRetry                         0                       # Number of times read queue was full causing retry
system.mem_ctrls.numWrRetry                         0                       # Number of times write queue was full causing retry
system.mem_ctrls.totGap                     667225000                       # Total gap between requests
system.mem_ctrls.readPktSize::0                     0                       # Read request sizes (log2)
system.mem_ctrls.readPktSize::1                     0                       # Read request sizes (log2)
system.mem_ctrls.readPktSize::2                     0                       # Read request sizes (log2)
system.mem_ctrls.readPktSize::3                     0                       # Read request sizes (log2)
system.mem_ctrls.readPktSize::4                     0                       # Read request sizes (log2)
system.mem_ctrls.readPktSize::5                     0                       # Read request sizes (log2)
system.mem_ctrls.readPktSize::6                  2347                       # Read request sizes (log2)
system.mem_ctrls.writePktSize::0                    0                       # Write request sizes (log2)
system.mem_ctrls.writePktSize::1                    0                       # Write request sizes (log2)
system.mem_ctrls.writePktSize::2                    0                       # Write request sizes (log2)
system.mem_ctrls.writePktSize::3                    0                       # Write request sizes (log2)
system.mem_ctrls.writePktSize::4                    0                       # Write request sizes (log2)
system.mem_ctrls.writePktSize::5                    0                       # Write request sizes (log2)
system.mem_ctrls.writePktSize::6                    0                       # Write request sizes (log2)
system.mem_ctrls.rdQLenPdf::0                    1363                       # What read queue length does an incoming req see
system.mem_ctrls.rdQLenPdf::1                     884                       # What read queue length does an incoming req see
system.mem_ctrls.rdQLenPdf::2                      72                       # What read queue length does an incoming req see
system.mem_ctrls.rdQLenPdf::3                      20                       # What read queue length does an incoming req see
system.mem_ctrls.rdQLenPdf::4                       5                       # What read queue length does an incoming req see
system.mem_ctrls.rdQLenPdf::5                       3                       # What read queue length does an incoming req see
system.mem_ctrls.rdQLenPdf::6                       0                       # What read queue length does an incoming req see
system.mem_ctrls.rdQLenPdf::7                       0                       # What read queue length does an incoming req see
system.mem_ctrls.rdQLenPdf::8                       0                       # What read queue length does an incoming req see
system.mem_ctrls.rdQLenPdf::9                       0                       # What read queue length does an incoming req see
system.mem_ctrls.rdQLenPdf::10                      0                       # What read queue length does an incoming req see
system.mem_ctrls.rdQLenPdf::11                      0                       # What read queue length does an incoming req see
system.mem_ctrls.rdQLenPdf::12                      0                       # What read queue length does an incoming req see
system.mem_ctrls.rdQLenPdf::13                      0                       # What read queue length does an incoming req see
system.mem_ctrls.rdQLenPdf::14                      0                       # What read queue length does an incoming req see
system.mem_ctrls.rdQLenPdf::15                      0                       # What read queue length does an incoming req see
system.mem_ctrls.rdQLenPdf::16                      0                       # What read queue length does an incoming req see
system.mem_ctrls.rdQLenPdf::17                      0                       # What read queue length does an incoming req see
system.mem_ctrls.rdQLenPdf::18                      0                       # What read queue length does an incoming req see
system.mem_ctrls.rdQLenPdf::19                      0                       # What read queue length does an incoming req see
system.mem_ctrls.rdQLenPdf::20                      0                       # What read queue length does an incoming req see
system.mem_ctrls.rdQLenPdf::21                      0                       # What read queue length does an incoming req see
system.mem_ctrls.rdQLenPdf::22                      0                       # What read queue length does an incoming req see
system.mem_ctrls.rdQLenPdf::23                      0                       # What read queue length does an incoming req see
system.mem_ctrls.rdQLenPdf::24                      0                       # What read queue length does an incoming req see
system.mem_ctrls.rdQLenPdf::25                      0                       # What read queue length does an incoming req see
system.mem_ctrls.rdQLenPdf::26                      0                       # What read queue length does an incoming req see
system.mem_ctrls.rdQLenPdf::27                      0                       # What read queue length does an incoming req see
system.mem_ctrls.rdQLenPdf::28                      0                       # What read queue length does an incoming req see
system.mem_ctrls.rdQLenPdf::29                      0                       # What read queue length does an incoming req see
system.mem_ctrls.rdQLenPdf::30                      0                       # What read queue length does an incoming req see
system.mem_ctrls.rdQLenPdf::31                      0                       # What read queue length does an incoming req see
system.mem_ctrls.wrQLenPdf::0                       0                       # What write queue length does an incoming req see
system.mem_ctrls.wrQLenPdf::1                       0                       # What write queue length does an incoming req see
system.mem_ctrls.wrQLenPdf::2                       0                       # What write queue length does an incoming req see
system.mem_ctrls.wrQLenPdf::3                       0                       # What write queue length does an incoming req see
system.mem_ctrls.wrQLenPdf::4                       0                       # What write queue length does an incoming req see
system.mem_ctrls.wrQLenPdf::5                       0                       # What write queue length does an incoming req see
system.mem_ctrls.wrQLenPdf::6                       0                       # What write queue length does an incoming req see
system.mem_ctrls.wrQLenPdf::7                       0                       # What write queue length does an incoming req see
system.mem_ctrls.wrQLenPdf::8                       0                       # What write queue length does an incoming req see
system.mem_ctrls.wrQLenPdf::9                       0                       # What write queue length does an incoming req see
system.mem_ctrls.wrQLenPdf::10                      0                       # What write queue length does an incoming req see
system.mem_ctrls.wrQLenPdf::11                      0                       # What write queue length does an incoming req see
system.mem_ctrls.wrQLenPdf::12                      0                       # What write queue length does an incoming req see
system.mem_ctrls.wrQLenPdf::13                      0                       # What write queue length does an incoming req see
system.mem_ctrls.wrQLenPdf::14                      0                       # What write queue length does an incoming req see
system.mem_ctrls.wrQLenPdf::15                      0                       # What write queue length does an incoming req see
system.mem_ctrls.wrQLenPdf::16                      0                       # What write queue length does an incoming req see
system.mem_ctrls.wrQLenPdf::17                      0                       # What write queue length does an incoming req see
system.mem_ctrls.wrQLenPdf::18                      0                       # What write queue length does an incoming req see
system.mem_ctrls.wrQLenPdf::19                      0                       # What write queue length does an incoming req see
system.mem_ctrls.wrQLenPdf::20                      0                       # What write queue length does an incoming req see
system.mem_ctrls.wrQLenPdf::21                      0                       # What write queue length does an incoming req see
system.mem_ctrls.wrQLenPdf::22                      0                       # What write queue length does an incoming req see
system.mem_ctrls.wrQLenPdf::23                      0                       # What write queue length does an incoming req see
system.mem_ctrls.wrQLenPdf::24                      0                       # What write queue length does an incoming req see
system.mem_ctrls.wrQLenPdf::25                      0                       # What write queue length does an incoming req see
system.mem_ctrls.wrQLenPdf::26                      0                       # What write queue length does an incoming req see
system.mem_ctrls.wrQLenPdf::27                      0                       # What write queue length does an incoming req see
system.mem_ctrls.wrQLenPdf::28                      0                       # What write queue length does an incoming req see
system.mem_ctrls.wrQLenPdf::29                      0                       # What write queue length does an incoming req see
system.mem_ctrls.wrQLenPdf::30                      0                       # What write queue length does an incoming req see
system.mem_ctrls.wrQLenPdf::31                      0                       # What write queue length does an incoming req see
system.mem_ctrls.wrQLenPdf::32                      0                       # What write queue length does an incoming req see
system.mem_ctrls.wrQLenPdf::33                      0                       # What write queue length does an incoming req see
system.mem_ctrls.wrQLenPdf::34                      0                       # What write queue length does an incoming req see
system.mem_ctrls.wrQLenPdf::35                      0                       # What write queue length does an incoming req see
system.mem_ctrls.wrQLenPdf::36                      0                       # What write queue length does an incoming req see
system.mem_ctrls.wrQLenPdf::37                      0                       # What write queue length does an incoming req see
system.mem_ctrls.wrQLenPdf::38                      0                       # What write queue length does an incoming req see
system.mem_ctrls.wrQLenPdf::39                      0                       # What write queue length does an incoming req see
system.mem_ctrls.wrQLenPdf::40                      0                       # What write queue length does an incoming req see
system.mem_ctrls.wrQLenPdf::41                      0                       # What write queue length does an incoming req see
system.mem_ctrls.wrQLenPdf::42                      0                       # What write queue length does an incoming req see
system.mem_ctrls.wrQLenPdf::43                      0                       # What write queue length does an incoming req see
system.mem_ctrls.wrQLenPdf::44                      0                       # What write queue length does an incoming req see
system.mem_ctrls.wrQLenPdf::45                      0                       # What write queue length does an incoming req see
system.mem_ctrls.wrQLenPdf::46                      0                       # What write queue length does an incoming req see
system.mem_ctrls.wrQLenPdf::47                      0                       # What write queue length does an incoming req see
system.mem_ctrls.wrQLenPdf::48                      0                       # What write queue length does an incoming req see
system.mem_ctrls.wrQLenPdf::49                      0                       # What write queue length does an incoming req see
system.mem_ctrls.wrQLenPdf::50                      0                       # What write queue length does an incoming req see
system.mem_ctrls.wrQLenPdf::51                      0                       # What write queue length does an incoming req see
system.mem_ctrls.wrQLenPdf::52                      0                       # What write queue length does an incoming req see
system.mem_ctrls.wrQLenPdf::53                      0                       # What write queue length does an incoming req see
system.mem_ctrls.wrQLenPdf::54                      0                       # What write queue length does an incoming req see
system.mem_ctrls.wrQLenPdf::55                      0                       # What write queue length does an incoming req see
system.mem_ctrls.wrQLenPdf::56                      0                       # What write queue length does an incoming req see
system.mem_ctrls.wrQLenPdf::57                      0                       # What write queue length does an incoming req see
system.mem_ctrls.wrQLenPdf::58                      0                       # What write queue length does an incoming req see
system.mem_ctrls.wrQLenPdf::59                      0                       # What write queue length does an incoming req see
system.mem_ctrls.wrQLenPdf::60                      0                       # What write queue length does an incoming req see
system.mem_ctrls.wrQLenPdf::61                      0                       # What write queue length does an incoming req see
system.mem_ctrls.wrQLenPdf::62                      0                       # What write queue length does an incoming req see
system.mem_ctrls.wrQLenPdf::63                      0                       # What write queue length does an incoming req see
system.mem_ctrls.bytesPerActivate::samples          271                       # Bytes accessed per row activation
system.mem_ctrls.bytesPerActivate::mean    547.424354                       # Bytes accessed per row activation
system.mem_ctrls.bytesPerActivate::gmean   335.709477                       # Bytes accessed per row activation
system.mem_ctrls.bytesPerActivate::stdev   422.898456                       # Bytes accessed per row activation
system.mem_ctrls.bytesPerActivate::0-127           56     20.66%     20.66% # Bytes accessed per row activation
system.mem_ctrls.bytesPerActivate::128-255           50     18.45%     39.11% # Bytes accessed per row activation
system.mem_ctrls.bytesPerActivate::256-383           24      8.86%     47.97% # Bytes accessed per row activation
system.mem_ctrls.bytesPerActivate::384-511            9      3.32%     51.29% # Bytes accessed per row activation
system.mem_ctrls.bytesPerActivate::512-639            9      3.32%     54.61% # Bytes accessed per row activation
system.mem_ctrls.bytesPerActivate::640-767            6      2.21%     56.83% # Bytes accessed per row activation
system.mem_ctrls.bytesPerActivate::768-895            5      1.85%     58.67% # Bytes accessed per row activation
system.mem_ctrls.bytesPerActivate::896-1023            6      2.21%     60.89% # Bytes accessed per row activation
system.mem_ctrls.bytesPerActivate::1024-1151          106     39.11%    100.00% # Bytes accessed per row activation
system.mem_ctrls.bytesPerActivate::total          271                       # Bytes accessed per row activation
system.mem_ctrls.totQLat                     14047500                       # Total ticks spent queuing
system.mem_ctrls.totMemAccLat                58053750                       # Total ticks spent from burst creation until serviced by the DRAM
system.mem_ctrls.totBusLat                   11735000                       # Total ticks spent in databus transfers
system.mem_ctrls.avgQLat                      5985.30                       # Average queueing delay per DRAM burst
system.mem_ctrls.avgBusLat                    5000.00                       # Average bus latency per DRAM burst
system.mem_ctrls.avgMemAccLat                24735.30                       # Average memory access latency per DRAM burst
system.mem_ctrls.avgRdBW                       225.11                       # Average DRAM read bandwidth in MiByte/s
system.mem_ctrls.avgWrBW                         0.00                       # Average achieved write bandwidth in MiByte/s
system.mem_ctrls.avgRdBWSys                    225.11                       # Average system read bandwidth in MiByte/s
system.mem_ctrls.avgWrBWSys                      0.00                       # Average system write bandwidth in MiByte/s
system.mem_ctrls.peakBW                      12800.00                       # Theoretical peak bandwidth in MiByte/s
system.mem_ctrls.busUtil                         1.76                       # Data bus utilization in percentage
system.mem_ctrls.busUtilRead                     1.76                       # Data bus utilization in percentage for reads
system.mem_ctrls.busUtilWrite                    0.00                       # Data bus utilization in percentage for writes
system.mem_ctrls.avgRdQLen                       1.11                       # Average read queue length when enqueuing
system.mem_ctrls.avgWrQLen                       0.00                       # Average write queue length when enqueuing
system.mem_ctrls.readRowHits                     2065                       # Number of row buffer hits during reads
system.mem_ctrls.writeRowHits                       0                       # Number of row buffer hits during writes
system.mem_ctrls.readRowHitRate                 87.98                       # Row buffer hit rate for reads
system.mem_ctrls.writeRowHitRate                  nan                       # Row buffer hit rate for writes
system.mem_ctrls.avgGap                     284288.45                       # Average gap between requests
system.mem_ctrls.pageHitRate                    87.98                       # Row buffer hit rate, read and write combined
system.mem_ctrls_0.actEnergy                  1300320                       # Energy for activate commands per rank (pJ)
system.mem_ctrls_0.preEnergy                   709500                       # Energy for precharge commands per rank (pJ)
system.mem_ctrls_0.readEnergy                 9414600                       # Energy for read commands per rank (pJ)
system.mem_ctrls_0.writeEnergy                      0                       # Energy for write commands per rank (pJ)
system.mem_ctrls_0.refreshEnergy             43227600                       # Energy for refresh commands per rank (pJ)
system.mem_ctrls_0.actBackEnergy             74833875                       # Energy for active background per rank (pJ)
system.mem_ctrls_0.preBackEnergy            331602750                       # Energy for precharge background per rank (pJ)
system.mem_ctrls_0.totalEnergy              461088645                       # Total energy per rank (pJ)
system.mem_ctrls_0.averagePower            696.426997                       # Core power per rank (mW)
system.mem_ctrls_0.memoryStateTime::IDLE    551740000                       # Time in different power states
system.mem_ctrls_0.memoryStateTime::REF      22100000                       # Time in different power states
system.mem_ctrls_0.memoryStateTime::PRE_PDN            0                       # Time in different power states
system.mem_ctrls_0.memoryStateTime::ACT      88917500                       # Time in different power states
system.mem_ctrls_0.memoryStateTime::ACT_PDN            0                       # Time in different power states
system.mem_ctrls_1.actEnergy                   687960                       # Energy for activate commands per rank (pJ)
system.mem_ctrls_1.preEnergy                   375375                       # Energy for precharge commands per rank (pJ)
system.mem_ctrls_1.readEnergy                 8236800                       # Energy for read commands per rank (pJ)
system.mem_ctrls_1.writeEnergy                      0                       # Energy for write commands per rank (pJ)
system.mem_ctrls_1.refreshEnergy             43227600                       # Energy for refresh commands per rank (pJ)
system.mem_ctrls_1.actBackEnergy             66597660                       # Energy for active background per rank (pJ)
system.mem_ctrls_1.preBackEnergy            338827500                       # Energy for precharge background per rank (pJ)
system.mem_ctrls_1.totalEnergy              457952895                       # Total energy per rank (pJ)
system.mem_ctrls_1.averagePower            691.690769                       # Core power per rank (mW)
system.mem_ctrls_1.memoryStateTime::IDLE    564266000                       # Time in different power states
system.mem_ctrls_1.memoryStateTime::REF      22100000                       # Time in different power states
system.mem_ctrls_1.memoryStateTime::PRE_PDN            0                       # Time in different power states
system.mem_ctrls_1.memoryStateTime::ACT      77094500                       # Time in different power states
system.mem_ctrls_1.memoryStateTime::ACT_PDN            0                       # Time in different power states
system.cpu.branchPred.lookups                  291686                       # Number of BP lookups
system.cpu.branchPred.condPredicted            289177                       # Number of conditional branches predicted
system.cpu.branchPred.condIncorrect              5321                       # Number of conditional branches incorrect
system.cpu.branchPred.BTBLookups               289375                       # Number of BTB lookups
system.cpu.branchPred.BTBHits                  285688                       # Number of BTB hits
system.cpu.branchPred.BTBCorrect                    0                       # Number of correct BTB predictions (this stat may not work properly.
system.cpu.branchPred.BTBHitPct             98.725875                       # BTB Hit Percentage
system.cpu.branchPred.usedRAS                     931                       # Number of times the RAS was used to get a target.
system.cpu.branchPred.RASInCorrect                 14                       # Number of incorrect RAS predictions.
system.cpu_voltage_domain.voltage                   1                       # Voltage in Volts
system.cpu_clk_domain.clock                       500                       # Clock period in ticks
system.cpu.dstage2_mmu.stage2_tlb.walker.walks            0                       # Table walker walks requested
system.cpu.dstage2_mmu.stage2_tlb.walker.walkRequestOrigin_Requested::Data            0                       # Table walker requests started/completed, data/inst
system.cpu.dstage2_mmu.stage2_tlb.walker.walkRequestOrigin_Requested::Inst            0                       # Table walker requests started/completed, data/inst
system.cpu.dstage2_mmu.stage2_tlb.walker.walkRequestOrigin_Requested::total            0                       # Table walker requests started/completed, data/inst
system.cpu.dstage2_mmu.stage2_tlb.walker.walkRequestOrigin_Completed::Data            0                       # Table walker requests started/completed, data/inst
system.cpu.dstage2_mmu.stage2_tlb.walker.walkRequestOrigin_Completed::Inst            0                       # Table walker requests started/completed, data/inst
system.cpu.dstage2_mmu.stage2_tlb.walker.walkRequestOrigin_Completed::total            0                       # Table walker requests started/completed, data/inst
system.cpu.dstage2_mmu.stage2_tlb.walker.walkRequestOrigin::total            0                       # Table walker requests started/completed, data/inst
system.cpu.dstage2_mmu.stage2_tlb.inst_hits            0                       # ITB inst hits
system.cpu.dstage2_mmu.stage2_tlb.inst_misses            0                       # ITB inst misses
system.cpu.dstage2_mmu.stage2_tlb.read_hits            0                       # DTB read hits
system.cpu.dstage2_mmu.stage2_tlb.read_misses            0                       # DTB read misses
system.cpu.dstage2_mmu.stage2_tlb.write_hits            0                       # DTB write hits
system.cpu.dstage2_mmu.stage2_tlb.write_misses            0                       # DTB write misses
system.cpu.dstage2_mmu.stage2_tlb.flush_tlb            0                       # Number of times complete TLB was flushed
system.cpu.dstage2_mmu.stage2_tlb.flush_tlb_mva            0                       # Number of times TLB was flushed by MVA
system.cpu.dstage2_mmu.stage2_tlb.flush_tlb_mva_asid            0                       # Number of times TLB was flushed by MVA & ASID
system.cpu.dstage2_mmu.stage2_tlb.flush_tlb_asid            0                       # Number of times TLB was flushed by ASID
system.cpu.dstage2_mmu.stage2_tlb.flush_entries            0                       # Number of entries that have been flushed from TLB
system.cpu.dstage2_mmu.stage2_tlb.align_faults            0                       # Number of TLB faults due to alignment restrictions
system.cpu.dstage2_mmu.stage2_tlb.prefetch_faults            0                       # Number of TLB faults due to prefetch
system.cpu.dstage2_mmu.stage2_tlb.domain_faults            0                       # Number of TLB faults due to domain restrictions
system.cpu.dstage2_mmu.stage2_tlb.perms_faults            0                       # Number of TLB faults due to permissions restrictions
system.cpu.dstage2_mmu.stage2_tlb.read_accesses            0                       # DTB read accesses
system.cpu.dstage2_mmu.stage2_tlb.write_accesses            0                       # DTB write accesses
system.cpu.dstage2_mmu.stage2_tlb.inst_accesses            0                       # ITB inst accesses
system.cpu.dstage2_mmu.stage2_tlb.hits              0                       # DTB hits
system.cpu.dstage2_mmu.stage2_tlb.misses            0                       # DTB misses
system.cpu.dstage2_mmu.stage2_tlb.accesses            0                       # DTB accesses
system.cpu.dtb.walker.walks                         0                       # Table walker walks requested
system.cpu.dtb.walker.walkRequestOrigin_Requested::Data            0                       # Table walker requests started/completed, data/inst
system.cpu.dtb.walker.walkRequestOrigin_Requested::Inst            0                       # Table walker requests started/completed, data/inst
system.cpu.dtb.walker.walkRequestOrigin_Requested::total            0                       # Table walker requests started/completed, data/inst
system.cpu.dtb.walker.walkRequestOrigin_Completed::Data            0                       # Table walker requests started/completed, data/inst
system.cpu.dtb.walker.walkRequestOrigin_Completed::Inst            0                       # Table walker requests started/completed, data/inst
system.cpu.dtb.walker.walkRequestOrigin_Completed::total            0                       # Table walker requests started/completed, data/inst
system.cpu.dtb.walker.walkRequestOrigin::total            0                       # Table walker requests started/completed, data/inst
system.cpu.dtb.inst_hits                            0                       # ITB inst hits
system.cpu.dtb.inst_misses                          0                       # ITB inst misses
system.cpu.dtb.read_hits                            0                       # DTB read hits
system.cpu.dtb.read_misses                          0                       # DTB read misses
system.cpu.dtb.write_hits                           0                       # DTB write hits
system.cpu.dtb.write_misses                         0                       # DTB write misses
system.cpu.dtb.flush_tlb                            0                       # Number of times complete TLB was flushed
system.cpu.dtb.flush_tlb_mva                        0                       # Number of times TLB was flushed by MVA
system.cpu.dtb.flush_tlb_mva_asid                   0                       # Number of times TLB was flushed by MVA & ASID
system.cpu.dtb.flush_tlb_asid                       0                       # Number of times TLB was flushed by ASID
system.cpu.dtb.flush_entries                        0                       # Number of entries that have been flushed from TLB
system.cpu.dtb.align_faults                         0                       # Number of TLB faults due to alignment restrictions
system.cpu.dtb.prefetch_faults                      0                       # Number of TLB faults due to prefetch
system.cpu.dtb.domain_faults                        0                       # Number of TLB faults due to domain restrictions
system.cpu.dtb.perms_faults                         0                       # Number of TLB faults due to permissions restrictions
system.cpu.dtb.read_accesses                        0                       # DTB read accesses
system.cpu.dtb.write_accesses                       0                       # DTB write accesses
system.cpu.dtb.inst_accesses                        0                       # ITB inst accesses
system.cpu.dtb.hits                                 0                       # DTB hits
system.cpu.dtb.misses                               0                       # DTB misses
system.cpu.dtb.accesses                             0                       # DTB accesses
system.cpu.istage2_mmu.stage2_tlb.walker.walks            0                       # Table walker walks requested
system.cpu.istage2_mmu.stage2_tlb.walker.walkRequestOrigin_Requested::Data            0                       # Table walker requests started/completed, data/inst
system.cpu.istage2_mmu.stage2_tlb.walker.walkRequestOrigin_Requested::Inst            0                       # Table walker requests started/completed, data/inst
system.cpu.istage2_mmu.stage2_tlb.walker.walkRequestOrigin_Requested::total            0                       # Table walker requests started/completed, data/inst
system.cpu.istage2_mmu.stage2_tlb.walker.walkRequestOrigin_Completed::Data            0                       # Table walker requests started/completed, data/inst
system.cpu.istage2_mmu.stage2_tlb.walker.walkRequestOrigin_Completed::Inst            0                       # Table walker requests started/completed, data/inst
system.cpu.istage2_mmu.stage2_tlb.walker.walkRequestOrigin_Completed::total            0                       # Table walker requests started/completed, data/inst
system.cpu.istage2_mmu.stage2_tlb.walker.walkRequestOrigin::total            0                       # Table walker requests started/completed, data/inst
system.cpu.istage2_mmu.stage2_tlb.inst_hits            0                       # ITB inst hits
system.cpu.istage2_mmu.stage2_tlb.inst_misses            0                       # ITB inst misses
system.cpu.istage2_mmu.stage2_tlb.read_hits            0                       # DTB read hits
system.cpu.istage2_mmu.stage2_tlb.read_misses            0                       # DTB read misses
system.cpu.istage2_mmu.stage2_tlb.write_hits            0                       # DTB write hits
system.cpu.istage2_mmu.stage2_tlb.write_misses            0                       # DTB write misses
system.cpu.istage2_mmu.stage2_tlb.flush_tlb            0                       # Number of times complete TLB was flushed
system.cpu.istage2_mmu.stage2_tlb.flush_tlb_mva            0                       # Number of times TLB was flushed by MVA
system.cpu.istage2_mmu.stage2_tlb.flush_tlb_mva_asid            0                       # Number of times TLB was flushed by MVA & ASID
system.cpu.istage2_mmu.stage2_tlb.flush_tlb_asid            0                       # Number of times TLB was flushed by ASID
system.cpu.istage2_mmu.stage2_tlb.flush_entries            0                       # Number of entries that have been flushed from TLB
system.cpu.istage2_mmu.stage2_tlb.align_faults            0                       # Number of TLB faults due to alignment restrictions
system.cpu.istage2_mmu.stage2_tlb.prefetch_faults            0                       # Number of TLB faults due to prefetch
system.cpu.istage2_mmu.stage2_tlb.domain_faults            0                       # Number of TLB faults due to domain restrictions
system.cpu.istage2_mmu.stage2_tlb.perms_faults            0                       # Number of TLB faults due to permissions restrictions
system.cpu.istage2_mmu.stage2_tlb.read_accesses            0                       # DTB read accesses
system.cpu.istage2_mmu.stage2_tlb.write_accesses            0                       # DTB write accesses
system.cpu.istage2_mmu.stage2_tlb.inst_accesses            0                       # ITB inst accesses
system.cpu.istage2_mmu.stage2_tlb.hits              0                       # DTB hits
system.cpu.istage2_mmu.stage2_tlb.misses            0                       # DTB misses
system.cpu.istage2_mmu.stage2_tlb.accesses            0                       # DTB accesses
system.cpu.itb.walker.walks                         0                       # Table walker walks requested
system.cpu.itb.walker.walkRequestOrigin_Requested::Data            0                       # Table walker requests started/completed, data/inst
system.cpu.itb.walker.walkRequestOrigin_Requested::Inst            0                       # Table walker requests started/completed, data/inst
system.cpu.itb.walker.walkRequestOrigin_Requested::total            0                       # Table walker requests started/completed, data/inst
system.cpu.itb.walker.walkRequestOrigin_Completed::Data            0                       # Table walker requests started/completed, data/inst
system.cpu.itb.walker.walkRequestOrigin_Completed::Inst            0                       # Table walker requests started/completed, data/inst
system.cpu.itb.walker.walkRequestOrigin_Completed::total            0                       # Table walker requests started/completed, data/inst
system.cpu.itb.walker.walkRequestOrigin::total            0                       # Table walker requests started/completed, data/inst
system.cpu.itb.inst_hits                            0                       # ITB inst hits
system.cpu.itb.inst_misses                          0                       # ITB inst misses
system.cpu.itb.read_hits                            0                       # DTB read hits
system.cpu.itb.read_misses                          0                       # DTB read misses
system.cpu.itb.write_hits                           0                       # DTB write hits
system.cpu.itb.write_misses                         0                       # DTB write misses
system.cpu.itb.flush_tlb                            0                       # Number of times complete TLB was flushed
system.cpu.itb.flush_tlb_mva                        0                       # Number of times TLB was flushed by MVA
system.cpu.itb.flush_tlb_mva_asid                   0                       # Number of times TLB was flushed by MVA & ASID
system.cpu.itb.flush_tlb_asid                       0                       # Number of times TLB was flushed by ASID
system.cpu.itb.flush_entries                        0                       # Number of entries that have been flushed from TLB
system.cpu.itb.align_faults                         0                       # Number of TLB faults due to alignment restrictions
system.cpu.itb.prefetch_faults                      0                       # Number of TLB faults due to prefetch
system.cpu.itb.domain_faults                        0                       # Number of TLB faults due to domain restrictions
system.cpu.itb.perms_faults                         0                       # Number of TLB faults due to permissions restrictions
system.cpu.itb.read_accesses                        0                       # DTB read accesses
system.cpu.itb.write_accesses                       0                       # DTB write accesses
system.cpu.itb.inst_accesses                        0                       # ITB inst accesses
system.cpu.itb.hits                                 0                       # DTB hits
system.cpu.itb.misses                               0                       # DTB misses
system.cpu.itb.accesses                             0                       # DTB accesses
system.cpu.workload.num_syscalls                   15                       # Number of system calls
system.cpu.numCycles                          1334530                       # number of cpu cycles simulated
system.cpu.numWorkItemsStarted                      0                       # number of work items this cpu started
system.cpu.numWorkItemsCompleted                    0                       # number of work items this cpu completed
system.cpu.fetch.icacheStallCycles             571483                       # Number of cycles fetch is stalled on an Icache miss
system.cpu.fetch.Insts                        4243761                       # Number of instructions fetch has processed
system.cpu.fetch.Branches                      291686                       # Number of branches that fetch encountered
system.cpu.fetch.predictedBranches             286619                       # Number of branches that fetch has predicted taken
system.cpu.fetch.Cycles                        713516                       # Number of cycles fetch has run and was not squashing or blocked
system.cpu.fetch.SquashCycles                   10767                       # Number of cycles fetch has spent squashing
system.cpu.fetch.MiscStallCycles                    1                       # Number of cycles fetch has spent waiting on interrupts, or bad addresses, or out of MSHRs
system.cpu.fetch.CacheLines                    557393                       # Number of cache lines fetched
system.cpu.fetch.IcacheSquashes                  1008                       # Number of outstanding Icache misses that were squashed
system.cpu.fetch.rateDist::samples            1290383                       # Number of instructions fetched each cycle (Total)
system.cpu.fetch.rateDist::mean              3.316713                       # Number of instructions fetched each cycle (Total)
system.cpu.fetch.rateDist::stdev             3.712042                       # Number of instructions fetched each cycle (Total)
system.cpu.fetch.rateDist::underflows               0      0.00%      0.00% # Number of instructions fetched each cycle (Total)
system.cpu.fetch.rateDist::0                   703594     54.53%     54.53% # Number of instructions fetched each cycle (Total)
system.cpu.fetch.rateDist::1                     6938      0.54%     55.06% # Number of instructions fetched each cycle (Total)
system.cpu.fetch.rateDist::2                     5904      0.46%     55.52% # Number of instructions fetched each cycle (Total)
system.cpu.fetch.rateDist::3                     1361      0.11%     55.63% # Number of instructions fetched each cycle (Total)
system.cpu.fetch.rateDist::4                    10483      0.81%     56.44% # Number of instructions fetched each cycle (Total)
system.cpu.fetch.rateDist::5                     1013      0.08%     56.52% # Number of instructions fetched each cycle (Total)
system.cpu.fetch.rateDist::6                     5298      0.41%     56.93% # Number of instructions fetched each cycle (Total)
system.cpu.fetch.rateDist::7                   268120     20.78%     77.71% # Number of instructions fetched each cycle (Total)
system.cpu.fetch.rateDist::8                   287672     22.29%    100.00% # Number of instructions fetched each cycle (Total)
system.cpu.fetch.rateDist::overflows                0      0.00%    100.00% # Number of instructions fetched each cycle (Total)
system.cpu.fetch.rateDist::min_value                0                       # Number of instructions fetched each cycle (Total)
system.cpu.fetch.rateDist::max_value                8                       # Number of instructions fetched each cycle (Total)
system.cpu.fetch.rateDist::total              1290383                       # Number of instructions fetched each cycle (Total)
system.cpu.fetch.branchRate                  0.218568                       # Number of branch fetches per cycle
system.cpu.fetch.rate                        3.179967                       # Number of inst fetches per cycle
system.cpu.decode.IdleCycles                   514095                       # Number of cycles decode is idle
system.cpu.decode.BlockedCycles                192616                       # Number of cycles decode is blocked
system.cpu.decode.RunCycles                    552634                       # Number of cycles decode is running
system.cpu.decode.UnblockCycles                 25979                       # Number of cycles decode is unblocking
system.cpu.decode.SquashCycles                   5059                       # Number of cycles decode is squashing
system.cpu.decode.BranchResolved                 1125                       # Number of times decode resolved a branch
system.cpu.decode.BranchMispred                   334                       # Number of times decode detected a branch misprediction
system.cpu.decode.DecodedInsts                4266377                       # Number of instructions handled by decode
system.cpu.decode.SquashedInsts                  1255                       # Number of squashed instructions handled by decode
system.cpu.rename.SquashCycles                   5059                       # Number of cycles rename is squashing
system.cpu.rename.IdleCycles                   526747                       # Number of cycles rename is idle
system.cpu.rename.BlockCycles                    5194                       # Number of cycles rename is blocking
system.cpu.rename.serializeStallCycles           7389                       # count of cycles rename stalled for serializing inst
system.cpu.rename.RunCycles                    565845                       # Number of cycles rename is running
system.cpu.rename.UnblockCycles                180149                       # Number of cycles rename is unblocking
system.cpu.rename.RenamedInsts                4232198                       # Number of instructions processed by rename
system.cpu.rename.ROBFullEvents                    11                       # Number of times rename has blocked due to ROB full
system.cpu.rename.IQFullEvents                   6406                       # Number of times rename has blocked due to IQ full
system.cpu.rename.LQFullEvents                  44889                       # Number of times rename has blocked due to LQ full
system.cpu.rename.SQFullEvents                 121352                       # Number of times rename has blocked due to SQ full
system.cpu.rename.RenamedOperands             5562393                       # Number of destination operands rename has renamed
system.cpu.rename.RenameLookups              20899389                       # Number of register rename lookups that rename has made
system.cpu.rename.int_rename_lookups          7019219                       # Number of integer rename lookups
system.cpu.rename.fp_rename_lookups                22                       # Number of floating rename lookups
system.cpu.rename.CommittedMaps               5447244                       # Number of HB maps that are committed
system.cpu.rename.UndoneMaps                   115149                       # Number of HB maps that are undone due to squashing
system.cpu.rename.serializingInsts                130                       # count of serializing insts renamed
system.cpu.rename.tempSerializingInsts            130                       # count of temporary serializing insts renamed
system.cpu.rename.skidInsts                    156323                       # count of insts added to the skid buffer
system.cpu.memDep0.insertedLoads              1089012                       # Number of loads inserted to the mem dependence unit.
system.cpu.memDep0.insertedStores               58685                       # Number of stores inserted to the mem dependence unit.
system.cpu.memDep0.conflictingLoads              8928                       # Number of conflicting loads.
system.cpu.memDep0.conflictingStores              523                       # Number of conflicting stores.
system.cpu.iq.iqInstsAdded                    4198783                       # Number of instructions added to the IQ (excludes non-spec)
system.cpu.iq.iqNonSpecInstsAdded                 268                       # Number of non-speculative instructions added to the IQ
system.cpu.iq.iqInstsIssued                   4182148                       # Number of instructions issued
system.cpu.iq.iqSquashedInstsIssued               284                       # Number of squashed instructions issued
system.cpu.iq.iqSquashedInstsExamined           57104                       # Number of squashed instructions iterated over during squash; mainly for profiling
system.cpu.iq.iqSquashedOperandsExamined       174274                       # Number of squashed operands that are examined and possibly removed from graph
system.cpu.iq.iqSquashedNonSpecRemoved             93                       # Number of squashed non-spec instructions that were removed
system.cpu.iq.issued_per_cycle::samples       1290383                       # Number of insts issued each cycle
system.cpu.iq.issued_per_cycle::mean         3.241013                       # Number of insts issued each cycle
system.cpu.iq.issued_per_cycle::stdev        2.644426                       # Number of insts issued each cycle
system.cpu.iq.issued_per_cycle::underflows            0      0.00%      0.00% # Number of insts issued each cycle
system.cpu.iq.issued_per_cycle::0              164185     12.72%     12.72% # Number of insts issued each cycle
system.cpu.iq.issued_per_cycle::1              265972     20.61%     33.34% # Number of insts issued each cycle
system.cpu.iq.issued_per_cycle::2              144599     11.21%     44.54% # Number of insts issued each cycle
system.cpu.iq.issued_per_cycle::3              281745     21.83%     66.38% # Number of insts issued each cycle
system.cpu.iq.issued_per_cycle::4              122289      9.48%     75.85% # Number of insts issued each cycle
system.cpu.iq.issued_per_cycle::5               40507      3.14%     78.99% # Number of insts issued each cycle
system.cpu.iq.issued_per_cycle::6               29345      2.27%     81.27% # Number of insts issued each cycle
system.cpu.iq.issued_per_cycle::7               19946      1.55%     82.81% # Number of insts issued each cycle
system.cpu.iq.issued_per_cycle::8              221795     17.19%    100.00% # Number of insts issued each cycle
system.cpu.iq.issued_per_cycle::overflows            0      0.00%    100.00% # Number of insts issued each cycle
system.cpu.iq.issued_per_cycle::min_value            0                       # Number of insts issued each cycle
system.cpu.iq.issued_per_cycle::max_value            8                       # Number of insts issued each cycle
system.cpu.iq.issued_per_cycle::total         1290383                       # Number of insts issued each cycle
system.cpu.iq.fu_full::No_OpClass                   0      0.00%      0.00% # attempts to use FU when none available
system.cpu.iq.fu_full::IntAlu                      46      0.03%      0.03% # attempts to use FU when none available
system.cpu.iq.fu_full::IntMult                 139437     99.39%     99.42% # attempts to use FU when none available
system.cpu.iq.fu_full::IntDiv                       0      0.00%     99.42% # attempts to use FU when none available
system.cpu.iq.fu_full::FloatAdd                     0      0.00%     99.42% # attempts to use FU when none available
system.cpu.iq.fu_full::FloatCmp                     0      0.00%     99.42% # attempts to use FU when none available
system.cpu.iq.fu_full::FloatCvt                     0      0.00%     99.42% # attempts to use FU when none available
system.cpu.iq.fu_full::FloatMult                    0      0.00%     99.42% # attempts to use FU when none available
system.cpu.iq.fu_full::FloatDiv                     0      0.00%     99.42% # attempts to use FU when none available
system.cpu.iq.fu_full::FloatSqrt                    0      0.00%     99.42% # attempts to use FU when none available
system.cpu.iq.fu_full::SimdAdd                      0      0.00%     99.42% # attempts to use FU when none available
system.cpu.iq.fu_full::SimdAddAcc                   0      0.00%     99.42% # attempts to use FU when none available
system.cpu.iq.fu_full::SimdAlu                      0      0.00%     99.42% # attempts to use FU when none available
system.cpu.iq.fu_full::SimdCmp                      0      0.00%     99.42% # attempts to use FU when none available
system.cpu.iq.fu_full::SimdCvt                      0      0.00%     99.42% # attempts to use FU when none available
system.cpu.iq.fu_full::SimdMisc                     0      0.00%     99.42% # attempts to use FU when none available
system.cpu.iq.fu_full::SimdMult                     0      0.00%     99.42% # attempts to use FU when none available
system.cpu.iq.fu_full::SimdMultAcc                  0      0.00%     99.42% # attempts to use FU when none available
system.cpu.iq.fu_full::SimdShift                    0      0.00%     99.42% # attempts to use FU when none available
system.cpu.iq.fu_full::SimdShiftAcc                 0      0.00%     99.42% # attempts to use FU when none available
system.cpu.iq.fu_full::SimdSqrt                     0      0.00%     99.42% # attempts to use FU when none available
system.cpu.iq.fu_full::SimdFloatAdd                 0      0.00%     99.42% # attempts to use FU when none available
system.cpu.iq.fu_full::SimdFloatAlu                 0      0.00%     99.42% # attempts to use FU when none available
system.cpu.iq.fu_full::SimdFloatCmp                 0      0.00%     99.42% # attempts to use FU when none available
system.cpu.iq.fu_full::SimdFloatCvt                 0      0.00%     99.42% # attempts to use FU when none available
system.cpu.iq.fu_full::SimdFloatDiv                 0      0.00%     99.42% # attempts to use FU when none available
system.cpu.iq.fu_full::SimdFloatMisc                0      0.00%     99.42% # attempts to use FU when none available
system.cpu.iq.fu_full::SimdFloatMult                0      0.00%     99.42% # attempts to use FU when none available
system.cpu.iq.fu_full::SimdFloatMultAcc             0      0.00%     99.42% # attempts to use FU when none available
system.cpu.iq.fu_full::SimdFloatSqrt                0      0.00%     99.42% # attempts to use FU when none available
system.cpu.iq.fu_full::MemRead                    637      0.45%     99.87% # attempts to use FU when none available
system.cpu.iq.fu_full::MemWrite                   179      0.13%    100.00% # attempts to use FU when none available
system.cpu.iq.fu_full::IprAccess                    0      0.00%    100.00% # attempts to use FU when none available
system.cpu.iq.fu_full::InstPrefetch                 0      0.00%    100.00% # attempts to use FU when none available
system.cpu.iq.FU_type_0::No_OpClass                 0      0.00%      0.00% # Type of FU issued
system.cpu.iq.FU_type_0::IntAlu               2241682     53.60%     53.60% # Type of FU issued
system.cpu.iq.FU_type_0::IntMult               794937     19.01%     72.61% # Type of FU issued
system.cpu.iq.FU_type_0::IntDiv                     0      0.00%     72.61% # Type of FU issued
system.cpu.iq.FU_type_0::FloatAdd                   0      0.00%     72.61% # Type of FU issued
system.cpu.iq.FU_type_0::FloatCmp                   0      0.00%     72.61% # Type of FU issued
system.cpu.iq.FU_type_0::FloatCvt                   0      0.00%     72.61% # Type of FU issued
system.cpu.iq.FU_type_0::FloatMult                  0      0.00%     72.61% # Type of FU issued
system.cpu.iq.FU_type_0::FloatDiv                   0      0.00%     72.61% # Type of FU issued
system.cpu.iq.FU_type_0::FloatSqrt                  0      0.00%     72.61% # Type of FU issued
system.cpu.iq.FU_type_0::SimdAdd                    0      0.00%     72.61% # Type of FU issued
system.cpu.iq.FU_type_0::SimdAddAcc                 0      0.00%     72.61% # Type of FU issued
system.cpu.iq.FU_type_0::SimdAlu                    0      0.00%     72.61% # Type of FU issued
system.cpu.iq.FU_type_0::SimdCmp                    0      0.00%     72.61% # Type of FU issued
system.cpu.iq.FU_type_0::SimdCvt                    0      0.00%     72.61% # Type of FU issued
system.cpu.iq.FU_type_0::SimdMisc                   0      0.00%     72.61% # Type of FU issued
system.cpu.iq.FU_type_0::SimdMult                   0      0.00%     72.61% # Type of FU issued
system.cpu.iq.FU_type_0::SimdMultAcc                0      0.00%     72.61% # Type of FU issued
system.cpu.iq.FU_type_0::SimdShift                  0      0.00%     72.61% # Type of FU issued
system.cpu.iq.FU_type_0::SimdShiftAcc               0      0.00%     72.61% # Type of FU issued
system.cpu.iq.FU_type_0::SimdSqrt                   0      0.00%     72.61% # Type of FU issued
system.cpu.iq.FU_type_0::SimdFloatAdd               0      0.00%     72.61% # Type of FU issued
system.cpu.iq.FU_type_0::SimdFloatAlu               0      0.00%     72.61% # Type of FU issued
system.cpu.iq.FU_type_0::SimdFloatCmp               0      0.00%     72.61% # Type of FU issued
system.cpu.iq.FU_type_0::SimdFloatCvt               0      0.00%     72.61% # Type of FU issued
system.cpu.iq.FU_type_0::SimdFloatDiv               0      0.00%     72.61% # Type of FU issued
system.cpu.iq.FU_type_0::SimdFloatMisc              3      0.00%     72.61% # Type of FU issued
system.cpu.iq.FU_type_0::SimdFloatMult              0      0.00%     72.61% # Type of FU issued
system.cpu.iq.FU_type_0::SimdFloatMultAcc            0      0.00%     72.61% # Type of FU issued
system.cpu.iq.FU_type_0::SimdFloatSqrt              0      0.00%     72.61% # Type of FU issued
system.cpu.iq.FU_type_0::MemRead              1087739     26.01%     98.62% # Type of FU issued
system.cpu.iq.FU_type_0::MemWrite               57787      1.38%    100.00% # Type of FU issued
system.cpu.iq.FU_type_0::IprAccess                  0      0.00%    100.00% # Type of FU issued
system.cpu.iq.FU_type_0::InstPrefetch               0      0.00%    100.00% # Type of FU issued
system.cpu.iq.FU_type_0::total                4182148                       # Type of FU issued
system.cpu.iq.rate                           3.133798                       # Inst issue rate
system.cpu.iq.fu_busy_cnt                      140299                       # FU busy when requested
system.cpu.iq.fu_busy_rate                   0.033547                       # FU busy rate (busy events/executed inst)
system.cpu.iq.int_inst_queue_reads            9795200                       # Number of integer instruction queue reads
system.cpu.iq.int_inst_queue_writes           4256200                       # Number of integer instruction queue writes
system.cpu.iq.int_inst_queue_wakeup_accesses      4161996                       # Number of integer instruction queue wakeup accesses
system.cpu.iq.fp_inst_queue_reads                  62                       # Number of floating instruction queue reads
system.cpu.iq.fp_inst_queue_writes                 28                       # Number of floating instruction queue writes
system.cpu.iq.fp_inst_queue_wakeup_accesses           28                       # Number of floating instruction queue wakeup accesses
system.cpu.iq.int_alu_accesses                4322413                       # Number of integer alu accesses
system.cpu.iq.fp_alu_accesses                      34                       # Number of floating point alu accesses
system.cpu.iew.lsq.thread0.forwLoads              168                       # Number of loads that had data forwarded from stores
system.cpu.iew.lsq.thread0.invAddrLoads             0                       # Number of loads ignored due to an invalid address
system.cpu.iew.lsq.thread0.squashedLoads        20554                       # Number of loads squashed
system.cpu.iew.lsq.thread0.ignoredResponses            4                       # Number of memory responses ignored because the instruction is squashed
system.cpu.iew.lsq.thread0.memOrderViolation           77                       # Number of memory ordering violations
system.cpu.iew.lsq.thread0.squashedStores         1550                       # Number of stores squashed
system.cpu.iew.lsq.thread0.invAddrSwpfs             0                       # Number of software prefetches ignored due to an invalid address
system.cpu.iew.lsq.thread0.blockedLoads             0                       # Number of blocked loads due to partial load-store forwarding
system.cpu.iew.lsq.thread0.rescheduledLoads          169                       # Number of loads that were rescheduled
system.cpu.iew.lsq.thread0.cacheBlocked            91                       # Number of times an access to memory failed due to the cache being blocked
system.cpu.iew.iewIdleCycles                        0                       # Number of cycles IEW is idle
system.cpu.iew.iewSquashCycles                   5059                       # Number of cycles IEW is squashing
system.cpu.iew.iewBlockCycles                    3841                       # Number of cycles IEW is blocking
system.cpu.iew.iewUnblockCycles                   755                       # Number of cycles IEW is unblocking
system.cpu.iew.iewDispatchedInsts             4199058                       # Number of instructions dispatched to IQ
system.cpu.iew.iewDispSquashedInsts               480                       # Number of squashed instructions skipped by dispatch
system.cpu.iew.iewDispLoadInsts               1089012                       # Number of dispatched load instructions
system.cpu.iew.iewDispStoreInsts                58685                       # Number of dispatched store instructions
system.cpu.iew.iewDispNonSpecInsts                121                       # Number of dispatched non-speculative instructions
system.cpu.iew.iewIQFullEvents                     27                       # Number of times the IQ has become full, causing a stall
system.cpu.iew.iewLSQFullEvents                   718                       # Number of times the LSQ has become full, causing a stall
system.cpu.iew.memOrderViolationEvents             77                       # Number of memory order violations
system.cpu.iew.predictedTakenIncorrect           4480                       # Number of branches that were predicted taken incorrectly
system.cpu.iew.predictedNotTakenIncorrect          645                       # Number of branches that were predicted not taken incorrectly
system.cpu.iew.branchMispredicts                 5125                       # Number of branch mispredicts detected at execute
system.cpu.iew.iewExecutedInsts               4175532                       # Number of executed instructions
system.cpu.iew.iewExecLoadInsts               1083650                       # Number of load instructions executed
system.cpu.iew.iewExecSquashedInsts              6616                       # Number of squashed instructions skipped in execute
system.cpu.iew.exec_swp                             0                       # number of swp insts executed
system.cpu.iew.exec_nop                             7                       # number of nop insts executed
system.cpu.iew.exec_refs                      1141241                       # number of memory reference insts executed
system.cpu.iew.exec_branches                   282558                       # Number of branches executed
system.cpu.iew.exec_stores                      57591                       # Number of stores executed
system.cpu.iew.exec_rate                     3.128841                       # Inst execution rate
system.cpu.iew.wb_sent                        4163600                       # cumulative count of insts sent to commit
system.cpu.iew.wb_count                       4162024                       # cumulative count of insts written-back
system.cpu.iew.wb_producers                   3430356                       # num instructions producing a value
system.cpu.iew.wb_consumers                   4716875                       # num instructions consuming a value
system.cpu.iew.wb_penalized                         0                       # number of instrctions required to write to 'other' IQ
system.cpu.iew.wb_rate                       3.118719                       # insts written-back per cycle
system.cpu.iew.wb_fanout                     0.727252                       # average fanout of values written-back
system.cpu.iew.wb_penalized_rate                    0                       # fraction of instructions written-back that wrote to 'other' IQ
system.cpu.commit.commitSquashedInsts           57118                       # The number of squashed insts skipped by commit
system.cpu.commit.commitNonSpecStalls             175                       # The number of times commit has been forced to stall to communicate backwards
system.cpu.commit.branchMispredicts              4997                       # The number of times a branch was mispredicted
system.cpu.commit.committed_per_cycle::samples      1282437                       # Number of insts commited each cycle
system.cpu.commit.committed_per_cycle::mean     3.229747                       # Number of insts commited each cycle
system.cpu.commit.committed_per_cycle::stdev     3.200238                       # Number of insts commited each cycle
system.cpu.commit.committed_per_cycle::underflows            0      0.00%      0.00% # Number of insts commited each cycle
system.cpu.commit.committed_per_cycle::0       301850     23.54%     23.54% # Number of insts commited each cycle
system.cpu.commit.committed_per_cycle::1       394088     30.73%     54.27% # Number of insts commited each cycle
system.cpu.commit.committed_per_cycle::2        40672      3.17%     57.44% # Number of insts commited each cycle
system.cpu.commit.committed_per_cycle::3        10336      0.81%     58.24% # Number of insts commited each cycle
system.cpu.commit.committed_per_cycle::4        15960      1.24%     59.49% # Number of insts commited each cycle
system.cpu.commit.committed_per_cycle::5       182968     14.27%     73.76% # Number of insts commited each cycle
system.cpu.commit.committed_per_cycle::6        13649      1.06%     74.82% # Number of insts commited each cycle
system.cpu.commit.committed_per_cycle::7         8379      0.65%     75.47% # Number of insts commited each cycle
system.cpu.commit.committed_per_cycle::8       314535     24.53%    100.00% # Number of insts commited each cycle
system.cpu.commit.committed_per_cycle::overflows            0      0.00%    100.00% # Number of insts commited each cycle
system.cpu.commit.committed_per_cycle::min_value            0                       # Number of insts commited each cycle
system.cpu.commit.committed_per_cycle::max_value            8                       # Number of insts commited each cycle
system.cpu.commit.committed_per_cycle::total      1282437                       # Number of insts commited each cycle
system.cpu.commit.committedInsts              4109449                       # Number of instructions committed
system.cpu.commit.committedOps                4141947                       # Number of ops (including micro ops) committed
system.cpu.commit.swp_count                         0                       # Number of s/w prefetches committed
system.cpu.commit.refs                        1125593                       # Number of memory references committed
system.cpu.commit.loads                       1068458                       # Number of loads committed
system.cpu.commit.membars                         107                       # Number of memory barriers committed
system.cpu.commit.branches                     281155                       # Number of branches committed
system.cpu.commit.fp_insts                         28                       # Number of committed floating point instructions.
system.cpu.commit.int_insts                   3861340                       # Number of committed integer instructions.
system.cpu.commit.function_calls                  305                       # Number of function calls committed.
system.cpu.commit.op_class_0::No_OpClass            0      0.00%      0.00% # Class of committed instruction
system.cpu.commit.op_class_0::IntAlu          2221682     53.64%     53.64% # Class of committed instruction
system.cpu.commit.op_class_0::IntMult          794669     19.19%     72.82% # Class of committed instruction
system.cpu.commit.op_class_0::IntDiv                0      0.00%     72.82% # Class of committed instruction
system.cpu.commit.op_class_0::FloatAdd              0      0.00%     72.82% # Class of committed instruction
system.cpu.commit.op_class_0::FloatCmp              0      0.00%     72.82% # Class of committed instruction
system.cpu.commit.op_class_0::FloatCvt              0      0.00%     72.82% # Class of committed instruction
system.cpu.commit.op_class_0::FloatMult             0      0.00%     72.82% # Class of committed instruction
system.cpu.commit.op_class_0::FloatDiv              0      0.00%     72.82% # Class of committed instruction
system.cpu.commit.op_class_0::FloatSqrt             0      0.00%     72.82% # Class of committed instruction
system.cpu.commit.op_class_0::SimdAdd               0      0.00%     72.82% # Class of committed instruction
system.cpu.commit.op_class_0::SimdAddAcc            0      0.00%     72.82% # Class of committed instruction
system.cpu.commit.op_class_0::SimdAlu               0      0.00%     72.82% # Class of committed instruction
system.cpu.commit.op_class_0::SimdCmp               0      0.00%     72.82% # Class of committed instruction
system.cpu.commit.op_class_0::SimdCvt               0      0.00%     72.82% # Class of committed instruction
system.cpu.commit.op_class_0::SimdMisc              0      0.00%     72.82% # Class of committed instruction
system.cpu.commit.op_class_0::SimdMult              0      0.00%     72.82% # Class of committed instruction
system.cpu.commit.op_class_0::SimdMultAcc            0      0.00%     72.82% # Class of committed instruction
system.cpu.commit.op_class_0::SimdShift             0      0.00%     72.82% # Class of committed instruction
system.cpu.commit.op_class_0::SimdShiftAcc            0      0.00%     72.82% # Class of committed instruction
system.cpu.commit.op_class_0::SimdSqrt              0      0.00%     72.82% # Class of committed instruction
system.cpu.commit.op_class_0::SimdFloatAdd            0      0.00%     72.82% # Class of committed instruction
system.cpu.commit.op_class_0::SimdFloatAlu            0      0.00%     72.82% # Class of committed instruction
system.cpu.commit.op_class_0::SimdFloatCmp            0      0.00%     72.82% # Class of committed instruction
system.cpu.commit.op_class_0::SimdFloatCvt            0      0.00%     72.82% # Class of committed instruction
system.cpu.commit.op_class_0::SimdFloatDiv            0      0.00%     72.82% # Class of committed instruction
system.cpu.commit.op_class_0::SimdFloatMisc            3      0.00%     72.82% # Class of committed instruction
system.cpu.commit.op_class_0::SimdFloatMult            0      0.00%     72.82% # Class of committed instruction
system.cpu.commit.op_class_0::SimdFloatMultAcc            0      0.00%     72.82% # Class of committed instruction
system.cpu.commit.op_class_0::SimdFloatSqrt            0      0.00%     72.82% # Class of committed instruction
system.cpu.commit.op_class_0::MemRead         1068458     25.80%     98.62% # Class of committed instruction
system.cpu.commit.op_class_0::MemWrite          57135      1.38%    100.00% # Class of committed instruction
system.cpu.commit.op_class_0::IprAccess             0      0.00%    100.00% # Class of committed instruction
system.cpu.commit.op_class_0::InstPrefetch            0      0.00%    100.00% # Class of committed instruction
system.cpu.commit.op_class_0::total           4141947                       # Class of committed instruction
system.cpu.commit.bw_lim_events                314535                       # number cycles where commit BW limit reached
system.cpu.rob.rob_reads                      5166784                       # The number of ROB reads
system.cpu.rob.rob_writes                     8406095                       # The number of ROB writes
system.cpu.timesIdled                             439                       # Number of times that the entire CPU went into an idle state and unscheduled itself
system.cpu.idleCycles                           44147                       # Total number of cycles that the CPU has spent unscheduled due to idling
system.cpu.committedInsts                     4109449                       # Number of Instructions Simulated
system.cpu.committedOps                       4141947                       # Number of Ops (including micro ops) Simulated
system.cpu.cpi                               0.324747                       # CPI: Cycles Per Instruction
system.cpu.cpi_total                         0.324747                       # CPI: Total CPI of All Threads
system.cpu.ipc                               3.079323                       # IPC: Instructions Per Cycle
system.cpu.ipc_total                         3.079323                       # IPC: Total IPC of All Threads
system.cpu.int_regfile_reads                  6902950                       # number of integer regfile reads
system.cpu.int_regfile_writes                 3807887                       # number of integer regfile writes
system.cpu.fp_regfile_reads                        22                       # number of floating regfile reads
system.cpu.fp_regfile_writes                        6                       # number of floating regfile writes
system.cpu.cc_regfile_reads                  15741644                       # number of cc regfile reads
system.cpu.cc_regfile_writes                  1663108                       # number of cc regfile writes
system.cpu.misc_regfile_reads                 1130947                       # number of misc regfile reads
system.cpu.misc_regfile_writes                    106                       # number of misc regfile writes
system.cpu.dcache.tags.replacements             12527                       # number of replacements
system.cpu.dcache.tags.tagsinuse           959.919425                       # Cycle average of tags in use
system.cpu.dcache.tags.total_refs             1048833                       # Total number of references to valid blocks.
system.cpu.dcache.tags.sampled_refs             13551                       # Sample count of references to valid blocks.
system.cpu.dcache.tags.avg_refs             77.398937                       # Average number of references to valid blocks.
system.cpu.dcache.tags.warmup_cycle          70649250                       # Cycle when the warmup percentage was hit.
system.cpu.dcache.tags.occ_blocks::cpu.data   959.919425                       # Average occupied blocks per requestor
system.cpu.dcache.tags.occ_percent::cpu.data     0.937421                       # Average percentage of cache occupancy
system.cpu.dcache.tags.occ_percent::total     0.937421                       # Average percentage of cache occupancy
system.cpu.dcache.tags.occ_task_id_blocks::1024         1024                       # Occupied blocks per task id
[...]
system.l2.demand_hits::cpu.data                 11746                       # number of demand (read+write) hits
system.l2.demand_hits::total                    11823                       # number of demand (read+write) hits
system.l2.overall_hits::cpu.inst                   77                       # number of overall hits
system.l2.overall_hits::cpu.data                11746                       # number of overall hits
system.l2.overall_hits::total                   11823                       # number of overall hits
system.l2.ReadReq_misses::cpu.inst                559                       # number of ReadReq misses
system.l2.ReadReq_misses::cpu.data                142                       # number of ReadReq misses
system.l2.ReadReq_misses::total                   701                       # number of ReadReq misses
system.l2.ReadExReq_misses::cpu.data             1663                       # number of ReadExReq misses
system.l2.ReadExReq_misses::total                1663                       # number of ReadExReq misses
system.l2.demand_misses::cpu.inst                 559                       # number of demand (read+write) misses
system.l2.demand_misses::cpu.data                1805                       # number of demand (read+write) misses
system.l2.demand_misses::total                   2364                       # number of demand (read+write) misses
system.l2.overall_misses::cpu.inst                559                       # number of overall misses
system.l2.overall_misses::cpu.data               1805                       # number of overall misses
system.l2.overall_misses::total                  2364                       # number of overall misses
system.l2.ReadReq_miss_latency::cpu.inst     42638000                       # number of ReadReq miss cycles
system.l2.ReadReq_miss_latency::cpu.data     11708000                       # number of ReadReq miss cycles
system.l2.ReadReq_miss_latency::total        54346000                       # number of ReadReq miss cycles
system.l2.ReadExReq_miss_latency::cpu.data    122526500                       # number of ReadExReq miss cycles
system.l2.ReadExReq_miss_latency::total     122526500                       # number of ReadExReq miss cycles
system.l2.demand_miss_latency::cpu.inst      42638000                       # number of demand (read+write) miss cycles
system.l2.demand_miss_latency::cpu.data     134234500                       # number of demand (read+write) miss cycles
system.l2.demand_miss_latency::total        176872500                       # number of demand (read+write) miss cycles
system.l2.overall_miss_latency::cpu.inst     42638000                       # number of overall miss cycles
system.l2.overall_miss_latency::cpu.data    134234500                       # number of overall miss cycles
system.l2.overall_miss_latency::total       176872500                       # number of overall miss cycles
system.l2.ReadReq_accesses::cpu.inst              636                       # number of ReadReq accesses(hits+misses)
system.l2.ReadReq_accesses::cpu.data             7067                       # number of ReadReq accesses(hits+misses)
system.l2.ReadReq_accesses::total                7703                       # number of ReadReq accesses(hits+misses)
system.l2.Writeback_accesses::writebacks        12379                       # number of Writeback accesses(hits+misses)
system.l2.Writeback_accesses::total             12379                       # number of Writeback accesses(hits+misses)
system.l2.ReadExReq_accesses::cpu.data           6484                       # number of ReadExReq accesses(hits+misses)
system.l2.ReadExReq_accesses::total              6484                       # number of ReadExReq accesses(hits+misses)
system.l2.demand_accesses::cpu.inst               636                       # number of demand (read+write) accesses
system.l2.demand_accesses::cpu.data             13551                       # number of demand (read+write) accesses
system.l2.demand_accesses::total                14187                       # number of demand (read+write) accesses
system.l2.overall_accesses::cpu.inst              636                       # number of overall (read+write) accesses
system.l2.overall_accesses::cpu.data            13551                       # number of overall (read+write) accesses
system.l2.overall_accesses::total               14187                       # number of overall (read+write) accesses
system.l2.ReadReq_miss_rate::cpu.inst        0.878931                       # miss rate for ReadReq accesses
system.l2.ReadReq_miss_rate::cpu.data        0.020093                       # miss rate for ReadReq accesses
system.l2.ReadReq_miss_rate::total           0.091004                       # miss rate for ReadReq accesses
system.l2.ReadExReq_miss_rate::cpu.data      0.256477                       # miss rate for ReadExReq accesses
system.l2.ReadExReq_miss_rate::total         0.256477                       # miss rate for ReadExReq accesses
system.l2.demand_miss_rate::cpu.inst         0.878931                       # miss rate for demand accesses
system.l2.demand_miss_rate::cpu.data         0.133201                       # miss rate for demand accesses
system.l2.demand_miss_rate::total            0.166631                       # miss rate for demand accesses
system.l2.overall_miss_rate::cpu.inst        0.878931                       # miss rate for overall accesses
system.l2.overall_miss_rate::cpu.data        0.133201                       # miss rate for overall accesses
system.l2.overall_miss_rate::total           0.166631                       # miss rate for overall accesses
system.l2.ReadReq_avg_miss_latency::cpu.inst 76275.491950                       # average ReadReq miss latency
system.l2.ReadReq_avg_miss_latency::cpu.data 82450.704225                       # average ReadReq miss latency
system.l2.ReadReq_avg_miss_latency::total 77526.390870                       # average ReadReq miss latency
system.l2.ReadExReq_avg_miss_latency::cpu.data 73677.991581                       # average ReadExReq miss latency
system.l2.ReadExReq_avg_miss_latency::total 73677.991581                       # average ReadExReq miss latency
system.l2.demand_avg_miss_latency::cpu.inst 76275.491950                       # average overall miss latency
system.l2.demand_avg_miss_latency::cpu.data 74368.144044                       # average overall miss latency
system.l2.demand_avg_miss_latency::total 74819.162437                       # average overall miss latency
system.l2.overall_avg_miss_latency::cpu.inst 76275.491950                       # average overall miss latency
system.l2.overall_avg_miss_latency::cpu.data 74368.144044                       # average overall miss latency
system.l2.overall_avg_miss_latency::total 74819.162437                       # average overall miss latency
system.l2.blocked_cycles::no_mshrs                  0                       # number of cycles access was blocked
system.l2.blocked_cycles::no_targets                0                       # number of cycles access was blocked
system.l2.blocked::no_mshrs                         0                       # number of cycles access was blocked
system.l2.blocked::no_targets                       0                       # number of cycles access was blocked
system.l2.avg_blocked_cycles::no_mshrs            nan                       # average number of cycles each access was blocked
system.l2.avg_blocked_cycles::no_targets          nan                       # average number of cycles each access was blocked
system.l2.fast_writes                               0                       # number of fast writes performed
system.l2.cache_copies                              0                       # number of cache copies performed
system.l2.ReadReq_mshr_hits::cpu.inst               1                       # number of ReadReq MSHR hits
system.l2.ReadReq_mshr_hits::cpu.data              16                       # number of ReadReq MSHR hits
system.l2.ReadReq_mshr_hits::total                 17                       # number of ReadReq MSHR hits
system.l2.demand_mshr_hits::cpu.inst                1                       # number of demand (read+write) MSHR hits
system.l2.demand_mshr_hits::cpu.data               16                       # number of demand (read+write) MSHR hits
system.l2.demand_mshr_hits::total                  17                       # number of demand (read+write) MSHR hits
system.l2.overall_mshr_hits::cpu.inst               1                       # number of overall MSHR hits
system.l2.overall_mshr_hits::cpu.data              16                       # number of overall MSHR hits
system.l2.overall_mshr_hits::total                 17                       # number of overall MSHR hits
system.l2.ReadReq_mshr_misses::cpu.inst           558                       # number of ReadReq MSHR misses
system.l2.ReadReq_mshr_misses::cpu.data           126                       # number of ReadReq MSHR misses
system.l2.ReadReq_mshr_misses::total              684                       # number of ReadReq MSHR misses
system.l2.ReadExReq_mshr_misses::cpu.data         1663                       # number of ReadExReq MSHR misses
system.l2.ReadExReq_mshr_misses::total           1663                       # number of ReadExReq MSHR misses
system.l2.demand_mshr_misses::cpu.inst            558                       # number of demand (read+write) MSHR misses
system.l2.demand_mshr_misses::cpu.data           1789                       # number of demand (read+write) MSHR misses
system.l2.demand_mshr_misses::total              2347                       # number of demand (read+write) MSHR misses
system.l2.overall_mshr_misses::cpu.inst           558                       # number of overall MSHR misses
system.l2.overall_mshr_misses::cpu.data          1789                       # number of overall MSHR misses
system.l2.overall_mshr_misses::total             2347                       # number of overall MSHR misses
system.l2.ReadReq_mshr_miss_latency::cpu.inst     35624000                       # number of ReadReq MSHR miss cycles
system.l2.ReadReq_mshr_miss_latency::cpu.data      9000500                       # number of ReadReq MSHR miss cycles
system.l2.ReadReq_mshr_miss_latency::total     44624500                       # number of ReadReq MSHR miss cycles
system.l2.ReadExReq_mshr_miss_latency::cpu.data    101782500                       # number of ReadExReq MSHR miss cycles
system.l2.ReadExReq_mshr_miss_latency::total    101782500                       # number of ReadExReq MSHR miss cycles
system.l2.demand_mshr_miss_latency::cpu.inst     35624000                       # number of demand (read+write) MSHR miss cycles
system.l2.demand_mshr_miss_latency::cpu.data    110783000                       # number of demand (read+write) MSHR miss cycles
system.l2.demand_mshr_miss_latency::total    146407000                       # number of demand (read+write) MSHR miss cycles
system.l2.overall_mshr_miss_latency::cpu.inst     35624000                       # number of overall MSHR miss cycles
system.l2.overall_mshr_miss_latency::cpu.data    110783000                       # number of overall MSHR miss cycles
system.l2.overall_mshr_miss_latency::total    146407000                       # number of overall MSHR miss cycles
system.l2.ReadReq_mshr_miss_rate::cpu.inst     0.877358                       # mshr miss rate for ReadReq accesses
system.l2.ReadReq_mshr_miss_rate::cpu.data     0.017829                       # mshr miss rate for ReadReq accesses
system.l2.ReadReq_mshr_miss_rate::total      0.088797                       # mshr miss rate for ReadReq accesses
system.l2.ReadExReq_mshr_miss_rate::cpu.data     0.256477                       # mshr miss rate for ReadExReq accesses
system.l2.ReadExReq_mshr_miss_rate::total     0.256477                       # mshr miss rate for ReadExReq accesses
system.l2.demand_mshr_miss_rate::cpu.inst     0.877358                       # mshr miss rate for demand accesses
system.l2.demand_mshr_miss_rate::cpu.data     0.132020                       # mshr miss rate for demand accesses
system.l2.demand_mshr_miss_rate::total       0.165433                       # mshr miss rate for demand accesses
system.l2.overall_mshr_miss_rate::cpu.inst     0.877358                       # mshr miss rate for overall accesses
system.l2.overall_mshr_miss_rate::cpu.data     0.132020                       # mshr miss rate for overall accesses
system.l2.overall_mshr_miss_rate::total      0.165433                       # mshr miss rate for overall accesses
system.l2.ReadReq_avg_mshr_miss_latency::cpu.inst 63842.293907                       # average ReadReq mshr miss latency
system.l2.ReadReq_avg_mshr_miss_latency::cpu.data 71432.539683                       # average ReadReq mshr miss latency
system.l2.ReadReq_avg_mshr_miss_latency::total 65240.497076                       # average ReadReq mshr miss latency
system.l2.ReadExReq_avg_mshr_miss_latency::cpu.data 61204.149128                       # average ReadExReq mshr miss latency
system.l2.ReadExReq_avg_mshr_miss_latency::total 61204.149128                       # average ReadExReq mshr miss latency
system.l2.demand_avg_mshr_miss_latency::cpu.inst 63842.293907                       # average overall mshr miss latency
system.l2.demand_avg_mshr_miss_latency::cpu.data 61924.538849                       # average overall mshr miss latency
system.l2.demand_avg_mshr_miss_latency::total 62380.485726                       # average overall mshr miss latency
system.l2.overall_avg_mshr_miss_latency::cpu.inst 63842.293907                       # average overall mshr miss latency
system.l2.overall_avg_mshr_miss_latency::cpu.data 61924.538849                       # average overall mshr miss latency
system.l2.overall_avg_mshr_miss_latency::total 62380.485726                       # average overall mshr miss latency
system.l2.no_allocate_misses                        0                       # Number of misses that were no-allocate
system.membus.trans_dist::ReadReq                 684                       # Transaction distribution
system.membus.trans_dist::ReadResp                683                       # Transaction distribution
system.membus.trans_dist::ReadExReq              1663                       # Transaction distribution
system.membus.trans_dist::ReadExResp             1663                       # Transaction distribution
system.membus.pkt_count_system.l2.mem_side::system.mem_ctrls.port         4693                       # Packet count per connected master and slave (bytes)
system.membus.pkt_count::total                   4693                       # Packet count per connected master and slave (bytes)
system.membus.pkt_size_system.l2.mem_side::system.mem_ctrls.port       150144                       # Cumulative packet size per connected master and slave (bytes)
system.membus.pkt_size::total                  150144                       # Cumulative packet size per connected master and slave (bytes)
system.membus.snoops                                0                       # Total snoops (count)
system.membus.snoop_fanout::samples              2347                       # Request fanout histogram
system.membus.snoop_fanout::mean                    0                       # Request fanout histogram
system.membus.snoop_fanout::stdev                   0                       # Request fanout histogram
system.membus.snoop_fanout::underflows              0      0.00%      0.00% # Request fanout histogram
system.membus.snoop_fanout::0                    2347    100.00%    100.00% # Request fanout histogram
system.membus.snoop_fanout::1                       0      0.00%    100.00% # Request fanout histogram
system.membus.snoop_fanout::overflows               0      0.00%    100.00% # Request fanout histogram
system.membus.snoop_fanout::min_value               0                       # Request fanout histogram
system.membus.snoop_fanout::max_value               0                       # Request fanout histogram
system.membus.snoop_fanout::total                2347                       # Request fanout histogram
system.membus.reqLayer0.occupancy             2579000                       # Layer occupancy (ticks)
system.membus.reqLayer0.utilization               0.4                       # Layer utilization (%)
system.membus.respLayer1.occupancy           12369500                       # Layer occupancy (ticks)
system.membus.respLayer1.utilization              1.9                       # Layer utilization (%)
system.tol2bus.trans_dist::ReadReq               7703                       # Transaction distribution
system.tol2bus.trans_dist::ReadResp              7701                       # Transaction distribution
system.tol2bus.trans_dist::Writeback            12379                       # Transaction distribution
system.tol2bus.trans_dist::ReadExReq             6484                       # Transaction distribution
system.tol2bus.trans_dist::ReadExResp            6484                       # Transaction distribution
system.tol2bus.pkt_count_system.cpu.icache.mem_side::system.l2.cpu_side         1270                       # Packet count per connected master and slave (bytes)
system.tol2bus.pkt_count_system.cpu.dcache.mem_side::system.l2.cpu_side        39481                       # Packet count per connected master and slave (bytes)
system.tol2bus.pkt_count::total                 40751                       # Packet count per connected master and slave (bytes)
system.tol2bus.pkt_size_system.cpu.icache.mem_side::system.l2.cpu_side        40576                       # Cumulative packet size per connected master and slave (bytes)
system.tol2bus.pkt_size_system.cpu.dcache.mem_side::system.l2.cpu_side      1659520                       # Cumulative packet size per connected master and slave (bytes)
system.tol2bus.pkt_size::total                1700096                       # Cumulative packet size per connected master and slave (bytes)
system.tol2bus.snoops                               0                       # Total snoops (count)
system.tol2bus.snoop_fanout::samples            26566                       # Request fanout histogram
system.tol2bus.snoop_fanout::mean                   1                       # Request fanout histogram
system.tol2bus.snoop_fanout::stdev                  0                       # Request fanout histogram
system.tol2bus.snoop_fanout::underflows             0      0.00%      0.00% # Request fanout histogram
system.tol2bus.snoop_fanout::0                      0      0.00%      0.00% # Request fanout histogram
system.tol2bus.snoop_fanout::1                  26566    100.00%    100.00% # Request fanout histogram
system.tol2bus.snoop_fanout::2                      0      0.00%    100.00% # Request fanout histogram
system.tol2bus.snoop_fanout::overflows              0      0.00%    100.00% # Request fanout histogram
system.tol2bus.snoop_fanout::min_value              1                       # Request fanout histogram
system.tol2bus.snoop_fanout::max_value              1                       # Request fanout histogram
system.tol2bus.snoop_fanout::total              26566                       # Request fanout histogram
system.tol2bus.reqLayer0.occupancy           25662000                       # Layer occupancy (ticks)
system.tol2bus.reqLayer0.utilization              3.8                       # Layer utilization (%)
system.tol2bus.respLayer0.occupancy           1054998                       # Layer occupancy (ticks)
system.tol2bus.respLayer0.utilization             0.2                       # Layer utilization (%)
system.tol2bus.respLayer1.occupancy          20705984                       # Layer occupancy (ticks)
system.tol2bus.respLayer1.utilization             3.1                       # Layer utilization (%)

---------- End Simulation Statistics   ----------
