
---------- Begin Simulation Statistics ----------
sim_seconds                                  0.000203                       # Number of seconds simulated
sim_ticks                                   203105500                       # Number of ticks simulated
final_tick                                  203105500                       # Number of ticks from beginning of simulation (restored from checkpoints and never reset)
sim_freq                                 1000000000000                       # Frequency of simulated ticks
host_inst_rate                                1617059                       # Simulator instruction rate (inst/s)
host_op_rate                                  1630940                       # Simulator op (including micro ops) rate (op/s)
host_tick_rate                               79167643                       # Simulator tick rate (ticks/s)
host_mem_usage                                 648216                       # Number of bytes of host memory used
host_seconds                                     2.57                       # Real time elapsed on the host
sim_insts                                     4148531                       # Number of instructions simulated
sim_ops                                       4184172                       # Number of ops (including micro ops) simulated
system.voltage_domain.voltage                       1                       # Voltage in Volts
system.clk_domain.clock                          1000                       # Clock period in ticks
system.mem_ctrls.bytes_read::cpu00.inst       1508324                       # Number of bytes read from this memory
system.mem_ctrls.bytes_read::cpu00.data        281729                       # Number of bytes read from this memory
system.mem_ctrls.bytes_read::cpu01.inst       1010324                       # Number of bytes read from this memory
system.mem_ctrls.bytes_read::cpu01.data        268834                       # Number of bytes read from this memory
system.mem_ctrls.bytes_read::cpu02.inst       1009652                       # Number of bytes read from this memory
system.mem_ctrls.bytes_read::cpu02.data        268754                       # Number of bytes read from this memory
system.mem_ctrls.bytes_read::cpu03.inst       1008964                       # Number of bytes read from this memory
system.mem_ctrls.bytes_read::cpu03.data        268674                       # Number of bytes read from this memory
system.mem_ctrls.bytes_read::cpu04.inst       1008308                       # Number of bytes read from this memory
system.mem_ctrls.bytes_read::cpu04.data        268590                       # Number of bytes read from this memory
system.mem_ctrls.bytes_read::cpu05.inst       1007752                       # Number of bytes read from this memory
system.mem_ctrls.bytes_read::cpu05.data        268398                       # Number of bytes read from this memory
system.mem_ctrls.bytes_read::cpu06.inst       1007080                       # Number of bytes read from this memory
system.mem_ctrls.bytes_read::cpu06.data        268322                       # Number of bytes read from this memory
system.mem_ctrls.bytes_read::cpu07.inst       1006408                       # Number of bytes read from this memory
system.mem_ctrls.bytes_read::cpu07.data        268234                       # Number of bytes read from this memory
system.mem_ctrls.bytes_read::cpu08.inst       1005736                       # Number of bytes read from this memory
system.mem_ctrls.bytes_read::cpu08.data        268146                       # Number of bytes read from this memory
system.mem_ctrls.bytes_read::cpu09.inst       1005064                       # Number of bytes read from this memory
system.mem_ctrls.bytes_read::cpu09.data        268074                       # Number of bytes read from this memory
system.mem_ctrls.bytes_read::cpu10.inst       1004428                       # Number of bytes read from this memory
system.mem_ctrls.bytes_read::cpu10.data        267930                       # Number of bytes read from this memory
system.mem_ctrls.bytes_read::cpu11.inst       1003836                       # Number of bytes read from this memory
system.mem_ctrls.bytes_read::cpu11.data        267806                       # Number of bytes read from this memory
system.mem_ctrls.bytes_read::cpu12.inst       1003164                       # Number of bytes read from this memory
system.mem_ctrls.bytes_read::cpu12.data        267714                       # Number of bytes read from this memory
system.mem_ctrls.bytes_read::cpu13.inst       1002492                       # Number of bytes read from this memory
system.mem_ctrls.bytes_read::cpu13.data        267638                       # Number of bytes read from this memory
system.mem_ctrls.bytes_read::cpu14.inst       1001820                       # Number of bytes read from this memory
system.mem_ctrls.bytes_read::cpu14.data        267558                       # Number of bytes read from this memory
system.mem_ctrls.bytes_read::cpu15.inst       1001132                       # Number of bytes read from this memory
system.mem_ctrls.bytes_read::cpu15.data        267462                       # Number of bytes read from this memory
system.mem_ctrls.bytes_read::total           20898347                       # Number of bytes read from this memory
system.mem_ctrls.bytes_inst_read::cpu00.inst      1508324                       # Number of instructions bytes read from this memory
system.mem_ctrls.bytes_inst_read::cpu01.inst      1010324                       # Number of instructions bytes read from this memory
system.mem_ctrls.bytes_inst_read::cpu02.inst      1009652                       # Number of instructions bytes read from this memory
system.mem_ctrls.bytes_inst_read::cpu03.inst      1008964                       # Number of instructions bytes read from this memory
system.mem_ctrls.bytes_inst_read::cpu04.inst      1008308                       # Number of instructions bytes read from this memory
system.mem_ctrls.bytes_inst_read::cpu05.inst      1007752                       # Number of instructions bytes read from this memory
system.mem_ctrls.bytes_inst_read::cpu06.inst      1007080                       # Number of instructions bytes read from this memory
system.mem_ctrls.bytes_inst_read::cpu07.inst      1006408                       # Number of instructions bytes read from this memory
system.mem_ctrls.bytes_inst_read::cpu08.inst      1005736                       # Number of instructions bytes read from this memory
system.mem_ctrls.bytes_inst_read::cpu09.inst      1005064                       # Number of instructions bytes read from this memory
system.mem_ctrls.bytes_inst_read::cpu10.inst      1004428                       # Number of instructions bytes read from this memory
system.mem_ctrls.bytes_inst_read::cpu11.inst      1003836                       # Number of instructions bytes read from this memory
system.mem_ctrls.bytes_inst_read::cpu12.inst      1003164                       # Number of instructions bytes read from this memory
system.mem_ctrls.bytes_inst_read::cpu13.inst      1002492                       # Number of instructions bytes read from this memory
system.mem_ctrls.bytes_inst_read::cpu14.inst      1001820                       # Number of instructions bytes read from this memory
system.mem_ctrls.bytes_inst_read::cpu15.inst      1001132                       # Number of instructions bytes read from this memory
system.mem_ctrls.bytes_inst_read::total      16594484                       # Number of instructions bytes read from this memory
system.mem_ctrls.bytes_written::cpu00.data       183737                       # Number of bytes written to this memory
system.mem_ctrls.bytes_written::cpu01.data         3724                       # Number of bytes written to this memory
system.mem_ctrls.bytes_written::cpu02.data         3724                       # Number of bytes written to this memory
system.mem_ctrls.bytes_written::cpu03.data         3744                       # Number of bytes written to this memory
system.mem_ctrls.bytes_written::cpu04.data         3724                       # Number of bytes written to this memory
system.mem_ctrls.bytes_written::cpu05.data         3652                       # Number of bytes written to this memory
system.mem_ctrls.bytes_written::cpu06.data         3652                       # Number of bytes written to this memory
system.mem_ctrls.bytes_written::cpu07.data         3652                       # Number of bytes written to this memory
system.mem_ctrls.bytes_written::cpu08.data         3652                       # Number of bytes written to this memory
system.mem_ctrls.bytes_written::cpu09.data         3652                       # Number of bytes written to this memory
system.mem_ctrls.bytes_written::cpu10.data         3632                       # Number of bytes written to this memory
system.mem_ctrls.bytes_written::cpu11.data         3580                       # Number of bytes written to this memory
system.mem_ctrls.bytes_written::cpu12.data         3580                       # Number of bytes written to this memory
system.mem_ctrls.bytes_written::cpu13.data         3580                       # Number of bytes written to this memory
system.mem_ctrls.bytes_written::cpu14.data         3580                       # Number of bytes written to this memory
system.mem_ctrls.bytes_written::cpu15.data         3600                       # Number of bytes written to this memory
system.mem_ctrls.bytes_written::total          238465                       # Number of bytes written to this memory
system.mem_ctrls.num_reads::cpu00.inst         377081                       # Number of read requests responded to by this memory
system.mem_ctrls.num_reads::cpu00.data          69953                       # Number of read requests responded to by this memory
system.mem_ctrls.num_reads::cpu01.inst         252581                       # Number of read requests responded to by this memory
system.mem_ctrls.num_reads::cpu01.data          67144                       # Number of read requests responded to by this memory
system.mem_ctrls.num_reads::cpu02.inst         252413                       # Number of read requests responded to by this memory
system.mem_ctrls.num_reads::cpu02.data          67125                       # Number of read requests responded to by this memory
system.mem_ctrls.num_reads::cpu03.inst         252241                       # Number of read requests responded to by this memory
system.mem_ctrls.num_reads::cpu03.data          67102                       # Number of read requests responded to by this memory
system.mem_ctrls.num_reads::cpu04.inst         252077                       # Number of read requests responded to by this memory
system.mem_ctrls.num_reads::cpu04.data          67084                       # Number of read requests responded to by this memory
system.mem_ctrls.num_reads::cpu05.inst         251938                       # Number of read requests responded to by this memory
system.mem_ctrls.num_reads::cpu05.data          67047                       # Number of read requests responded to by this memory
system.mem_ctrls.num_reads::cpu06.inst         251770                       # Number of read requests responded to by this memory
system.mem_ctrls.num_reads::cpu06.data          67028                       # Number of read requests responded to by this memory
system.mem_ctrls.num_reads::cpu07.inst         251602                       # Number of read requests responded to by this memory
system.mem_ctrls.num_reads::cpu07.data          67006                       # Number of read requests responded to by this memory
system.mem_ctrls.num_reads::cpu08.inst         251434                       # Number of read requests responded to by this memory
system.mem_ctrls.num_reads::cpu08.data          66985                       # Number of read requests responded to by this memory
system.mem_ctrls.num_reads::cpu09.inst         251266                       # Number of read requests responded to by this memory
system.mem_ctrls.num_reads::cpu09.data          66966                       # Number of read requests responded to by this memory
system.mem_ctrls.num_reads::cpu10.inst         251107                       # Number of read requests responded to by this memory
system.mem_ctrls.num_reads::cpu10.data          66934                       # Number of read requests responded to by this memory
system.mem_ctrls.num_reads::cpu11.inst         250959                       # Number of read requests responded to by this memory
system.mem_ctrls.num_reads::cpu11.data          66911                       # Number of read requests responded to by this memory
system.mem_ctrls.num_reads::cpu12.inst         250791                       # Number of read requests responded to by this memory
system.mem_ctrls.num_reads::cpu12.data          66889                       # Number of read requests responded to by this memory
system.mem_ctrls.num_reads::cpu13.inst         250623                       # Number of read requests responded to by this memory
system.mem_ctrls.num_reads::cpu13.data          66869                       # Number of read requests responded to by this memory
system.mem_ctrls.num_reads::cpu14.inst         250455                       # Number of read requests responded to by this memory
system.mem_ctrls.num_reads::cpu14.data          66850                       # Number of read requests responded to by this memory
system.mem_ctrls.num_reads::cpu15.inst         250283                       # Number of read requests responded to by this memory
system.mem_ctrls.num_reads::cpu15.data          66823                       # Number of read requests responded to by this memory
system.mem_ctrls.num_reads::total             5223337                       # Number of read requests responded to by this memory
system.mem_ctrls.num_writes::cpu00.data         46069                       # Number of write requests responded to by this memory
system.mem_ctrls.num_writes::cpu01.data           931                       # Number of write requests responded to by this memory
system.mem_ctrls.num_writes::cpu02.data           931                       # Number of write requests responded to by this memory
system.mem_ctrls.num_writes::cpu03.data           936                       # Number of write requests responded to by this memory
system.mem_ctrls.num_writes::cpu04.data           931                       # Number of write requests responded to by this memory
system.mem_ctrls.num_writes::cpu05.data           913                       # Number of write requests responded to by this memory
system.mem_ctrls.num_writes::cpu06.data           913                       # Number of write requests responded to by this memory
system.mem_ctrls.num_writes::cpu07.data           913                       # Number of write requests responded to by this memory
system.mem_ctrls.num_writes::cpu08.data           913                       # Number of write requests responded to by this memory
system.mem_ctrls.num_writes::cpu09.data           913                       # Number of write requests responded to by this memory
system.mem_ctrls.num_writes::cpu10.data           908                       # Number of write requests responded to by this memory
system.mem_ctrls.num_writes::cpu11.data           895                       # Number of write requests responded to by this memory
system.mem_ctrls.num_writes::cpu12.data           895                       # Number of write requests responded to by this memory
system.mem_ctrls.num_writes::cpu13.data           895                       # Number of write requests responded to by this memory
system.mem_ctrls.num_writes::cpu14.data           895                       # Number of write requests responded to by this memory
system.mem_ctrls.num_writes::cpu15.data           900                       # Number of write requests responded to by this memory
system.mem_ctrls.num_writes::total              59751                       # Number of write requests responded to by this memory
system.mem_ctrls.bw_read::cpu00.inst       7426308002                       # Total read bandwidth from this memory (bytes/s)
system.mem_ctrls.bw_read::cpu00.data       1387106701                       # Total read bandwidth from this memory (bytes/s)
system.mem_ctrls.bw_read::cpu01.inst       4974380310                       # Total read bandwidth from this memory (bytes/s)
system.mem_ctrls.bw_read::cpu01.data       1323617529                       # Total read bandwidth from this memory (bytes/s)
system.mem_ctrls.bw_read::cpu02.inst       4971071684                       # Total read bandwidth from this memory (bytes/s)
system.mem_ctrls.bw_read::cpu02.data       1323223645                       # Total read bandwidth from this memory (bytes/s)
system.mem_ctrls.bw_read::cpu03.inst       4967684282                       # Total read bandwidth from this memory (bytes/s)
system.mem_ctrls.bw_read::cpu03.data       1322829761                       # Total read bandwidth from this memory (bytes/s)
system.mem_ctrls.bw_read::cpu04.inst       4964454434                       # Total read bandwidth from this memory (bytes/s)
system.mem_ctrls.bw_read::cpu04.data       1322416183                       # Total read bandwidth from this memory (bytes/s)
system.mem_ctrls.bw_read::cpu05.inst       4961716940                       # Total read bandwidth from this memory (bytes/s)
system.mem_ctrls.bw_read::cpu05.data       1321470861                       # Total read bandwidth from this memory (bytes/s)
system.mem_ctrls.bw_read::cpu06.inst       4958408315                       # Total read bandwidth from this memory (bytes/s)
system.mem_ctrls.bw_read::cpu06.data       1321096671                       # Total read bandwidth from this memory (bytes/s)
system.mem_ctrls.bw_read::cpu07.inst       4955099690                       # Total read bandwidth from this memory (bytes/s)
system.mem_ctrls.bw_read::cpu07.data       1320663399                       # Total read bandwidth from this memory (bytes/s)
system.mem_ctrls.bw_read::cpu08.inst       4951791064                       # Total read bandwidth from this memory (bytes/s)
system.mem_ctrls.bw_read::cpu08.data       1320230127                       # Total read bandwidth from this memory (bytes/s)
system.mem_ctrls.bw_read::cpu09.inst       4948482439                       # Total read bandwidth from this memory (bytes/s)
system.mem_ctrls.bw_read::cpu09.data       1319875631                       # Total read bandwidth from this memory (bytes/s)
system.mem_ctrls.bw_read::cpu10.inst       4945351061                       # Total read bandwidth from this memory (bytes/s)
system.mem_ctrls.bw_read::cpu10.data       1319166640                       # Total read bandwidth from this memory (bytes/s)
system.mem_ctrls.bw_read::cpu11.inst       4942436320                       # Total read bandwidth from this memory (bytes/s)
system.mem_ctrls.bw_read::cpu11.data       1318556120                       # Total read bandwidth from this memory (bytes/s)
system.mem_ctrls.bw_read::cpu12.inst       4939127695                       # Total read bandwidth from this memory (bytes/s)
system.mem_ctrls.bw_read::cpu12.data       1318103153                       # Total read bandwidth from this memory (bytes/s)
system.mem_ctrls.bw_read::cpu13.inst       4935819069                       # Total read bandwidth from this memory (bytes/s)
system.mem_ctrls.bw_read::cpu13.data       1317728964                       # Total read bandwidth from this memory (bytes/s)
system.mem_ctrls.bw_read::cpu14.inst       4932510444                       # Total read bandwidth from this memory (bytes/s)
system.mem_ctrls.bw_read::cpu14.data       1317335080                       # Total read bandwidth from this memory (bytes/s)
system.mem_ctrls.bw_read::cpu15.inst       4929123042                       # Total read bandwidth from this memory (bytes/s)
system.mem_ctrls.bw_read::cpu15.data       1316862419                       # Total read bandwidth from this memory (bytes/s)
system.mem_ctrls.bw_read::total          102894047675                       # Total read bandwidth from this memory (bytes/s)
system.mem_ctrls.bw_inst_read::cpu00.inst   7426308002                       # Instruction read bandwidth from this memory (bytes/s)
system.mem_ctrls.bw_inst_read::cpu01.inst   4974380310                       # Instruction read bandwidth from this memory (bytes/s)
system.mem_ctrls.bw_inst_read::cpu02.inst   4971071684                       # Instruction read bandwidth from this memory (bytes/s)
system.mem_ctrls.bw_inst_read::cpu03.inst   4967684282                       # Instruction read bandwidth from this memory (bytes/s)
system.mem_ctrls.bw_inst_read::cpu04.inst   4964454434                       # Instruction read bandwidth from this memory (bytes/s)
system.mem_ctrls.bw_inst_read::cpu05.inst   4961716940                       # Instruction read bandwidth from this memory (bytes/s)
system.mem_ctrls.bw_inst_read::cpu06.inst   4958408315                       # Instruction read bandwidth from this memory (bytes/s)
system.mem_ctrls.bw_inst_read::cpu07.inst   4955099690                       # Instruction read bandwidth from this memory (bytes/s)
system.mem_ctrls.bw_inst_read::cpu08.inst   4951791064                       # Instruction read bandwidth from this memory (bytes/s)
system.mem_ctrls.bw_inst_read::cpu09.inst   4948482439                       # Instruction read bandwidth from this memory (bytes/s)
system.mem_ctrls.bw_inst_read::cpu10.inst   4945351061                       # Instruction read bandwidth from this memory (bytes/s)
system.mem_ctrls.bw_inst_read::cpu11.inst   4942436320                       # Instruction read bandwidth from this memory (bytes/s)
system.mem_ctrls.bw_inst_read::cpu12.inst   4939127695                       # Instruction read bandwidth from this memory (bytes/s)
system.mem_ctrls.bw_inst_read::cpu13.inst   4935819069                       # Instruction read bandwidth from this memory (bytes/s)
system.mem_ctrls.bw_inst_read::cpu14.inst   4932510444                       # Instruction read bandwidth from this memory (bytes/s)
system.mem_ctrls.bw_inst_read::cpu15.inst   4929123042                       # Instruction read bandwidth from this memory (bytes/s)
system.mem_ctrls.bw_inst_read::total      81703764792                       # Instruction read bandwidth from this memory (bytes/s)
system.mem_ctrls.bw_write::cpu00.data       904638230                       # Write bandwidth from this memory (bytes/s)
system.mem_ctrls.bw_write::cpu01.data        18335299                       # Write bandwidth from this memory (bytes/s)
system.mem_ctrls.bw_write::cpu02.data        18335299                       # Write bandwidth from this memory (bytes/s)
system.mem_ctrls.bw_write::cpu03.data        18433770                       # Write bandwidth from this memory (bytes/s)
system.mem_ctrls.bw_write::cpu04.data        18335299                       # Write bandwidth from this memory (bytes/s)
system.mem_ctrls.bw_write::cpu05.data        17980803                       # Write bandwidth from this memory (bytes/s)
system.mem_ctrls.bw_write::cpu06.data        17980803                       # Write bandwidth from this memory (bytes/s)
system.mem_ctrls.bw_write::cpu07.data        17980803                       # Write bandwidth from this memory (bytes/s)
system.mem_ctrls.bw_write::cpu08.data        17980803                       # Write bandwidth from this memory (bytes/s)
system.mem_ctrls.bw_write::cpu09.data        17980803                       # Write bandwidth from this memory (bytes/s)
system.mem_ctrls.bw_write::cpu10.data        17882332                       # Write bandwidth from this memory (bytes/s)
system.mem_ctrls.bw_write::cpu11.data        17626308                       # Write bandwidth from this memory (bytes/s)
system.mem_ctrls.bw_write::cpu12.data        17626308                       # Write bandwidth from this memory (bytes/s)
system.mem_ctrls.bw_write::cpu13.data        17626308                       # Write bandwidth from this memory (bytes/s)
system.mem_ctrls.bw_write::cpu14.data        17626308                       # Write bandwidth from this memory (bytes/s)
system.mem_ctrls.bw_write::cpu15.data        17724779                       # Write bandwidth from this memory (bytes/s)
system.mem_ctrls.bw_write::total           1174094252                       # Write bandwidth from this memory (bytes/s)
system.mem_ctrls.bw_total::cpu00.inst      7426308002                       # Total bandwidth to/from this memory (bytes/s)
system.mem_ctrls.bw_total::cpu00.data      2291744931                       # Total bandwidth to/from this memory (bytes/s)
system.mem_ctrls.bw_total::cpu01.inst      4974380310                       # Total bandwidth to/from this memory (bytes/s)
system.mem_ctrls.bw_total::cpu01.data      1341952827                       # Total bandwidth to/from this memory (bytes/s)
system.mem_ctrls.bw_total::cpu02.inst      4971071684                       # Total bandwidth to/from this memory (bytes/s)
system.mem_ctrls.bw_total::cpu02.data      1341558944                       # Total bandwidth to/from this memory (bytes/s)
system.mem_ctrls.bw_total::cpu03.inst      4967684282                       # Total bandwidth to/from this memory (bytes/s)
system.mem_ctrls.bw_total::cpu03.data      1341263531                       # Total bandwidth to/from this memory (bytes/s)
system.mem_ctrls.bw_total::cpu04.inst      4964454434                       # Total bandwidth to/from this memory (bytes/s)
system.mem_ctrls.bw_total::cpu04.data      1340751481                       # Total bandwidth to/from this memory (bytes/s)
system.mem_ctrls.bw_total::cpu05.inst      4961716940                       # Total bandwidth to/from this memory (bytes/s)
system.mem_ctrls.bw_total::cpu05.data      1339451664                       # Total bandwidth to/from this memory (bytes/s)
system.mem_ctrls.bw_total::cpu06.inst      4958408315                       # Total bandwidth to/from this memory (bytes/s)
system.mem_ctrls.bw_total::cpu06.data      1339077475                       # Total bandwidth to/from this memory (bytes/s)
system.mem_ctrls.bw_total::cpu07.inst      4955099690                       # Total bandwidth to/from this memory (bytes/s)
system.mem_ctrls.bw_total::cpu07.data      1338644202                       # Total bandwidth to/from this memory (bytes/s)
system.mem_ctrls.bw_total::cpu08.inst      4951791064                       # Total bandwidth to/from this memory (bytes/s)
system.mem_ctrls.bw_total::cpu08.data      1338210930                       # Total bandwidth to/from this memory (bytes/s)
system.mem_ctrls.bw_total::cpu09.inst      4948482439                       # Total bandwidth to/from this memory (bytes/s)
system.mem_ctrls.bw_total::cpu09.data      1337856434                       # Total bandwidth to/from this memory (bytes/s)
system.mem_ctrls.bw_total::cpu10.inst      4945351061                       # Total bandwidth to/from this memory (bytes/s)
system.mem_ctrls.bw_total::cpu10.data      1337048972                       # Total bandwidth to/from this memory (bytes/s)
system.mem_ctrls.bw_total::cpu11.inst      4942436320                       # Total bandwidth to/from this memory (bytes/s)
system.mem_ctrls.bw_total::cpu11.data      1336182427                       # Total bandwidth to/from this memory (bytes/s)
system.mem_ctrls.bw_total::cpu12.inst      4939127695                       # Total bandwidth to/from this memory (bytes/s)
system.mem_ctrls.bw_total::cpu12.data      1335729461                       # Total bandwidth to/from this memory (bytes/s)
system.mem_ctrls.bw_total::cpu13.inst      4935819069                       # Total bandwidth to/from this memory (bytes/s)
system.mem_ctrls.bw_total::cpu13.data      1335355271                       # Total bandwidth to/from this memory (bytes/s)
system.mem_ctrls.bw_total::cpu14.inst      4932510444                       # Total bandwidth to/from this memory (bytes/s)
system.mem_ctrls.bw_total::cpu14.data      1334961387                       # Total bandwidth to/from this memory (bytes/s)
system.mem_ctrls.bw_total::cpu15.inst      4929123042                       # Total bandwidth to/from this memory (bytes/s)
system.mem_ctrls.bw_total::cpu15.data      1334587197                       # Total bandwidth to/from this memory (bytes/s)
system.mem_ctrls.bw_total::total         104068141926                       # Total bandwidth to/from this memory (bytes/s)
system.mem_ctrls.readReqs                           0                       # Number of read requests accepted
system.mem_ctrls.writeReqs                          0                       # Number of write requests accepted
system.mem_ctrls.readBursts                         0                       # Number of DRAM read bursts, including those serviced by the write queue
system.mem_ctrls.writeBursts                        0                       # Number of DRAM write bursts, including those merged in the write queue
system.mem_ctrls.bytesReadDRAM                      0                       # Total number of bytes read from DRAM
system.mem_ctrls.bytesReadWrQ                       0                       # Total number of bytes read from write queue
system.mem_ctrls.bytesWritten                       0                       # Total number of bytes written to DRAM
system.mem_ctrls.bytesReadSys                       0                       # Total read bytes from the system interface side
system.mem_ctrls.bytesWrittenSys                    0                       # Total written bytes from the system interface side
system.mem_ctrls.servicedByWrQ                      0                       # Number of DRAM read bursts serviced by the write queue
system.mem_ctrls.mergedWrBursts                     0                       # Number of DRAM write bursts merged with an existing one
system.mem_ctrls.neitherReadNorWriteReqs            0                       # Number of requests that are neither read nor write
system.mem_ctrls.perBankRdBursts::0                 0                       # Per bank write bursts
system.mem_ctrls.perBankRdBursts::1                 0                       # Per bank write bursts
system.mem_ctrls.perBankRdBursts::2                 0                       # Per bank write bursts
system.mem_ctrls.perBankRdBursts::3                 0                       # Per bank write bursts
system.mem_ctrls.perBankRdBursts::4                 0                       # Per bank write bursts
system.mem_ctrls.perBankRdBursts::5                 0                       # Per bank write bursts
system.mem_ctrls.perBankRdBursts::6                 0                       # Per bank write bursts
system.mem_ctrls.perBankRdBursts::7                 0                       # Per bank write bursts
system.mem_ctrls.perBankRdBursts::8                 0                       # Per bank write bursts
system.mem_ctrls.perBankRdBursts::9                 0                       # Per bank write bursts
system.mem_ctrls.perBankRdBursts::10                0                       # Per bank write bursts
system.mem_ctrls.perBankRdBursts::11                0                       # Per bank write bursts
system.mem_ctrls.perBankRdBursts::12                0                       # Per bank write bursts
system.mem_ctrls.perBankRdBursts::13                0                       # Per bank write bursts
system.mem_ctrls.perBankRdBursts::14                0                       # Per bank write bursts
system.mem_ctrls.perBankRdBursts::15                0                       # Per bank write bursts
system.mem_ctrls.perBankWrBursts::0                 0                       # Per bank write bursts
system.mem_ctrls.perBankWrBursts::1                 0                       # Per bank write bursts
system.mem_ctrls.perBankWrBursts::2                 0                       # Per bank write bursts
system.mem_ctrls.perBankWrBursts::3                 0                       # Per bank write bursts
system.mem_ctrls.perBankWrBursts::4                 0                       # Per bank write bursts
system.mem_ctrls.perBankWrBursts::5                 0                       # Per bank write bursts
system.mem_ctrls.perBankWrBursts::6                 0                       # Per bank write bursts
system.mem_ctrls.perBankWrBursts::7                 0                       # Per bank write bursts
system.mem_ctrls.perBankWrBursts::8                 0                       # Per bank write bursts
system.mem_ctrls.perBankWrBursts::9                 0                       # Per bank write bursts
system.mem_ctrls.perBankWrBursts::10                0                       # Per bank write bursts
system.mem_ctrls.perBankWrBursts::11                0                       # Per bank write bursts
system.mem_ctrls.perBankWrBursts::12                0                       # Per bank write bursts
system.mem_ctrls.perBankWrBursts::13                0                       # Per bank write bursts
system.mem_ctrls.perBankWrBursts::14                0                       # Per bank write bursts
system.mem_ctrls.perBankWrBursts::15                0                       # Per bank write bursts
system.mem_ctrls.numRdRetry                         0                       # Number of times read queue was full causing retry
system.mem_ctrls.numWrRetry                         0                       # Number of times write queue was full causing retry
system.mem_ctrls.totGap                             0                       # Total gap between requests
system.mem_ctrls.readPktSize::0                     0                       # Read request sizes (log2)
system.mem_ctrls.readPktSize::1                     0                       # Read request sizes (log2)
system.mem_ctrls.readPktSize::2                     0                       # Read request sizes (log2)
system.mem_ctrls.readPktSize::3                     0                       # Read request sizes (log2)
system.mem_ctrls.readPktSize::4                     0                       # Read request sizes (log2)
system.mem_ctrls.readPktSize::5                     0                       # Read request sizes (log2)
system.mem_ctrls.readPktSize::6                     0                       # Read request sizes (log2)
system.mem_ctrls.writePktSize::0                    0                       # Write request sizes (log2)
system.mem_ctrls.writePktSize::1                    0                       # Write request sizes (log2)
system.mem_ctrls.writePktSize::2                    0                       # Write request sizes (log2)
system.mem_ctrls.writePktSize::3                    0                       # Write request sizes (log2)
system.mem_ctrls.writePktSize::4                    0                       # Write request sizes (log2)
system.mem_ctrls.writePktSize::5                    0                       # Write request sizes (log2)
system.mem_ctrls.writePktSize::6                    0                       # Write request sizes (log2)
system.mem_ctrls.rdQLenPdf::0                       0                       # What read queue length does an incoming req see
system.mem_ctrls.rdQLenPdf::1                       0                       # What read queue length does an incoming req see
system.mem_ctrls.rdQLenPdf::2                       0                       # What read queue length does an incoming req see
system.mem_ctrls.rdQLenPdf::3                       0                       # What read queue length does an incoming req see
system.mem_ctrls.rdQLenPdf::4                       0                       # What read queue length does an incoming req see
system.mem_ctrls.rdQLenPdf::5                       0                       # What read queue length does an incoming req see
system.mem_ctrls.rdQLenPdf::6                       0                       # What read queue length does an incoming req see
system.mem_ctrls.rdQLenPdf::7                       0                       # What read queue length does an incoming req see
system.mem_ctrls.rdQLenPdf::8                       0                       # What read queue length does an incoming req see
system.mem_ctrls.rdQLenPdf::9                       0                       # What read queue length does an incoming req see
system.mem_ctrls.rdQLenPdf::10                      0                       # What read queue length does an incoming req see
system.mem_ctrls.rdQLenPdf::11                      0                       # What read queue length does an incoming req see
system.mem_ctrls.rdQLenPdf::12                      0                       # What read queue length does an incoming req see
system.mem_ctrls.rdQLenPdf::13                      0                       # What read queue length does an incoming req see
system.mem_ctrls.rdQLenPdf::14                      0                       # What read queue length does an incoming req see
system.mem_ctrls.rdQLenPdf::15                      0                       # What read queue length does an incoming req see
system.mem_ctrls.rdQLenPdf::16                      0                       # What read queue length does an incoming req see
system.mem_ctrls.rdQLenPdf::17                      0                       # What read queue length does an incoming req see
system.mem_ctrls.rdQLenPdf::18                      0                       # What read queue length does an incoming req see
system.mem_ctrls.rdQLenPdf::19                      0                       # What read queue length does an incoming req see
system.mem_ctrls.rdQLenPdf::20                      0                       # What read queue length does an incoming req see
system.mem_ctrls.rdQLenPdf::21                      0                       # What read queue length does an incoming req see
system.mem_ctrls.rdQLenPdf::22                      0                       # What read queue length does an incoming req see
system.mem_ctrls.rdQLenPdf::23                      0                       # What read queue length does an incoming req see
system.mem_ctrls.rdQLenPdf::24                      0                       # What read queue length does an incoming req see
system.mem_ctrls.rdQLenPdf::25                      0                       # What read queue length does an incoming req see
system.mem_ctrls.rdQLenPdf::26                      0                       # What read queue length does an incoming req see
system.mem_ctrls.rdQLenPdf::27                      0                       # What read queue length does an incoming req see
system.mem_ctrls.rdQLenPdf::28                      0                       # What read queue length does an incoming req see
system.mem_ctrls.rdQLenPdf::29                      0                       # What read queue length does an incoming req see
system.mem_ctrls.rdQLenPdf::30                      0                       # What read queue length does an incoming req see
system.mem_ctrls.rdQLenPdf::31                      0                       # What read queue length does an incoming req see
system.mem_ctrls.wrQLenPdf::0                       0                       # What write queue length does an incoming req see
system.mem_ctrls.wrQLenPdf::1                       0                       # What write queue length does an incoming req see
system.mem_ctrls.wrQLenPdf::2                       0                       # What write queue length does an incoming req see
system.mem_ctrls.wrQLenPdf::3                       0                       # What write queue length does an incoming req see
system.mem_ctrls.wrQLenPdf::4                       0                       # What write queue length does an incoming req see
system.mem_ctrls.wrQLenPdf::5                       0                       # What write queue length does an incoming req see
system.mem_ctrls.wrQLenPdf::6                       0                       # What write queue length does an incoming req see
system.mem_ctrls.wrQLenPdf::7                       0                       # What write queue length does an incoming req see
system.mem_ctrls.wrQLenPdf::8                       0                       # What write queue length does an incoming req see
system.mem_ctrls.wrQLenPdf::9                       0                       # What write queue length does an incoming req see
system.mem_ctrls.wrQLenPdf::10                      0                       # What write queue length does an incoming req see
system.mem_ctrls.wrQLenPdf::11                      0                       # What write queue length does an incoming req see
system.mem_ctrls.wrQLenPdf::12                      0                       # What write queue length does an incoming req see
system.mem_ctrls.wrQLenPdf::13                      0                       # What write queue length does an incoming req see
system.mem_ctrls.wrQLenPdf::14                      0                       # What write queue length does an incoming req see
system.mem_ctrls.wrQLenPdf::15                      0                       # What write queue length does an incoming req see
system.mem_ctrls.wrQLenPdf::16                      0                       # What write queue length does an incoming req see
system.mem_ctrls.wrQLenPdf::17                      0                       # What write queue length does an incoming req see
system.mem_ctrls.wrQLenPdf::18                      0                       # What write queue length does an incoming req see
system.mem_ctrls.wrQLenPdf::19                      0                       # What write queue length does an incoming req see
system.mem_ctrls.wrQLenPdf::20                      0                       # What write queue length does an incoming req see
system.mem_ctrls.wrQLenPdf::21                      0                       # What write queue length does an incoming req see
system.mem_ctrls.wrQLenPdf::22                      0                       # What write queue length does an incoming req see
system.mem_ctrls.wrQLenPdf::23                      0                       # What write queue length does an incoming req see
system.mem_ctrls.wrQLenPdf::24                      0                       # What write queue length does an incoming req see
system.mem_ctrls.wrQLenPdf::25                      0                       # What write queue length does an incoming req see
system.mem_ctrls.wrQLenPdf::26                      0                       # What write queue length does an incoming req see
system.mem_ctrls.wrQLenPdf::27                      0                       # What write queue length does an incoming req see
system.mem_ctrls.wrQLenPdf::28                      0                       # What write queue length does an incoming req see
system.mem_ctrls.wrQLenPdf::29                      0                       # What write queue length does an incoming req see
system.mem_ctrls.wrQLenPdf::30                      0                       # What write queue length does an incoming req see
system.mem_ctrls.wrQLenPdf::31                      0                       # What write queue length does an incoming req see
system.mem_ctrls.wrQLenPdf::32                      0                       # What write queue length does an incoming req see
system.mem_ctrls.wrQLenPdf::33                      0                       # What write queue length does an incoming req see
system.mem_ctrls.wrQLenPdf::34                      0                       # What write queue length does an incoming req see
system.mem_ctrls.wrQLenPdf::35                      0                       # What write queue length does an incoming req see
system.mem_ctrls.wrQLenPdf::36                      0                       # What write queue length does an incoming req see
system.mem_ctrls.wrQLenPdf::37                      0                       # What write queue length does an incoming req see
system.mem_ctrls.wrQLenPdf::38                      0                       # What write queue length does an incoming req see
system.mem_ctrls.wrQLenPdf::39                      0                       # What write queue length does an incoming req see
system.mem_ctrls.wrQLenPdf::40                      0                       # What write queue length does an incoming req see
system.mem_ctrls.wrQLenPdf::41                      0                       # What write queue length does an incoming req see
system.mem_ctrls.wrQLenPdf::42                      0                       # What write queue length does an incoming req see
system.mem_ctrls.wrQLenPdf::43                      0                       # What write queue length does an incoming req see
system.mem_ctrls.wrQLenPdf::44                      0                       # What write queue length does an incoming req see
system.mem_ctrls.wrQLenPdf::45                      0                       # What write queue length does an incoming req see
system.mem_ctrls.wrQLenPdf::46                      0                       # What write queue length does an incoming req see
system.mem_ctrls.wrQLenPdf::47                      0                       # What write queue length does an incoming req see
system.mem_ctrls.wrQLenPdf::48                      0                       # What write queue length does an incoming req see
system.mem_ctrls.wrQLenPdf::49                      0                       # What write queue length does an incoming req see
system.mem_ctrls.wrQLenPdf::50                      0                       # What write queue length does an incoming req see
system.mem_ctrls.wrQLenPdf::51                      0                       # What write queue length does an incoming req see
system.mem_ctrls.wrQLenPdf::52                      0                       # What write queue length does an incoming req see
system.mem_ctrls.wrQLenPdf::53                      0                       # What write queue length does an incoming req see
system.mem_ctrls.wrQLenPdf::54                      0                       # What write queue length does an incoming req see
system.mem_ctrls.wrQLenPdf::55                      0                       # What write queue length does an incoming req see
system.mem_ctrls.wrQLenPdf::56                      0                       # What write queue length does an incoming req see
system.mem_ctrls.wrQLenPdf::57                      0                       # What write queue length does an incoming req see
system.mem_ctrls.wrQLenPdf::58                      0                       # What write queue length does an incoming req see
system.mem_ctrls.wrQLenPdf::59                      0                       # What write queue length does an incoming req see
system.mem_ctrls.wrQLenPdf::60                      0                       # What write queue length does an incoming req see
system.mem_ctrls.wrQLenPdf::61                      0                       # What write queue length does an incoming req see
system.mem_ctrls.wrQLenPdf::62                      0                       # What write queue length does an incoming req see
system.mem_ctrls.wrQLenPdf::63                      0                       # What write queue length does an incoming req see
system.mem_ctrls.totQLat                            0                       # Total ticks spent queuing
system.mem_ctrls.totMemAccLat                       0                       # Total ticks spent from burst creation until serviced by the DRAM
system.mem_ctrls.totBusLat                          0                       # Total ticks spent in databus transfers
system.mem_ctrls.avgQLat                          nan                       # Average queueing delay per DRAM burst
system.mem_ctrls.avgBusLat                        nan                       # Average bus latency per DRAM burst
system.mem_ctrls.avgMemAccLat                     nan                       # Average memory access latency per DRAM burst
system.mem_ctrls.avgRdBW                         0.00                       # Average DRAM read bandwidth in MiByte/s
system.mem_ctrls.avgWrBW                         0.00                       # Average achieved write bandwidth in MiByte/s
system.mem_ctrls.avgRdBWSys                      0.00                       # Average system read bandwidth in MiByte/s
system.mem_ctrls.avgWrBWSys                      0.00                       # Average system write bandwidth in MiByte/s
system.mem_ctrls.peakBW                      12800.00                       # Theoretical peak bandwidth in MiByte/s
system.mem_ctrls.busUtil                         0.00                       # Data bus utilization in percentage
system.mem_ctrls.busUtilRead                     0.00                       # Data bus utilization in percentage for reads
system.mem_ctrls.busUtilWrite                    0.00                       # Data bus utilization in percentage for writes
system.mem_ctrls.avgRdQLen                       0.00                       # Average read queue length when enqueuing
system.mem_ctrls.avgWrQLen                       0.00                       # Average write queue length when enqueuing
system.mem_ctrls.readRowHits                        0                       # Number of row buffer hits during reads
system.mem_ctrls.writeRowHits                       0                       # Number of row buffer hits during writes
system.mem_ctrls.readRowHitRate                   nan                       # Row buffer hit rate for reads
system.mem_ctrls.writeRowHitRate                  nan                       # Row buffer hit rate for writes
system.mem_ctrls.avgGap                           nan                       # Average gap between requests
system.mem_ctrls.pageHitRate                      nan                       # Row buffer hit rate, read and write combined
system.mem_ctrls_0.actEnergy                        0                       # Energy for activate commands per rank (pJ)
system.mem_ctrls_0.preEnergy                        0                       # Energy for precharge commands per rank (pJ)
system.mem_ctrls_0.readEnergy                       0                       # Energy for read commands per rank (pJ)
system.mem_ctrls_0.writeEnergy                      0                       # Energy for write commands per rank (pJ)
system.mem_ctrls_0.refreshEnergy                    0                       # Energy for refresh commands per rank (pJ)
system.mem_ctrls_0.actBackEnergy                    0                       # Energy for active background per rank (pJ)
system.mem_ctrls_0.preBackEnergy                    0                       # Energy for precharge background per rank (pJ)
system.mem_ctrls_0.totalEnergy                      0                       # Total energy per rank (pJ)
system.mem_ctrls_0.averagePower                     0                       # Core power per rank (mW)
system.mem_ctrls_0.memoryStateTime::IDLE            0                       # Time in different power states
system.mem_ctrls_0.memoryStateTime::REF             0                       # Time in different power states
system.mem_ctrls_0.memoryStateTime::PRE_PDN            0                       # Time in different power states
system.mem_ctrls_0.memoryStateTime::ACT             0                       # Time in different power states
system.mem_ctrls_0.memoryStateTime::ACT_PDN            0                       # Time in different power states
system.mem_ctrls_1.actEnergy                        0                       # Energy for activate commands per rank (pJ)
system.mem_ctrls_1.preEnergy                        0                       # Energy for precharge commands per rank (pJ)
system.mem_ctrls_1.readEnergy                       0                       # Energy for read commands per rank (pJ)
system.mem_ctrls_1.writeEnergy                      0                       # Energy for write commands per rank (pJ)
system.mem_ctrls_1.refreshEnergy                    0                       # Energy for refresh commands per rank (pJ)
system.mem_ctrls_1.actBackEnergy                    0                       # Energy for active background per rank (pJ)
system.mem_ctrls_1.preBackEnergy                    0                       # Energy for precharge background per rank (pJ)
system.mem_ctrls_1.totalEnergy                      0                       # Total energy per rank (pJ)
system.mem_ctrls_1.averagePower                     0                       # Core power per rank (mW)
system.mem_ctrls_1.memoryStateTime::IDLE            0                       # Time in different power states
system.mem_ctrls_1.memoryStateTime::REF             0                       # Time in different power states
system.mem_ctrls_1.memoryStateTime::PRE_PDN            0                       # Time in different power states
system.mem_ctrls_1.memoryStateTime::ACT             0                       # Time in different power states
system.mem_ctrls_1.memoryStateTime::ACT_PDN            0                       # Time in different power states
system.cpu_voltage_domain.voltage                   1                       # Voltage in Volts
system.cpu_clk_domain.clock                       500                       # Clock period in ticks
system.cpu00.dstage2_mmu.stage2_tlb.walker.walks            0                       # Table walker walks requested
system.cpu00.dstage2_mmu.stage2_tlb.walker.walkRequestOrigin_Requested::Data            0                       # Table walker requests started/completed, data/inst
system.cpu00.dstage2_mmu.stage2_tlb.walker.walkRequestOrigin_Requested::Inst            0                       # Table walker requests started/completed, data/inst
system.cpu00.dstage2_mmu.stage2_tlb.walker.walkRequestOrigin_Requested::total            0                       # Table walker requests started/completed, data/inst
system.cpu00.dstage2_mmu.stage2_tlb.walker.walkRequestOrigin_Completed::Data            0                       # Table walker requests started/completed, data/inst
system.cpu00.dstage2_mmu.stage2_tlb.walker.walkRequestOrigin_Completed::Inst            0                       # Table walker requests started/completed, data/inst
system.cpu00.dstage2_mmu.stage2_tlb.walker.walkRequestOrigin_Completed::total            0                       # Table walker requests started/completed, data/inst
system.cpu00.dstage2_mmu.stage2_tlb.walker.walkRequestOrigin::total            0                       # Table walker requests started/completed, data/inst
system.cpu00.dstage2_mmu.stage2_tlb.inst_hits            0                       # ITB inst hits
system.cpu00.dstage2_mmu.stage2_tlb.inst_misses            0                       # ITB inst misses
system.cpu00.dstage2_mmu.stage2_tlb.read_hits            0                       # DTB read hits
system.cpu00.dstage2_mmu.stage2_tlb.read_misses            0                       # DTB read misses
system.cpu00.dstage2_mmu.stage2_tlb.write_hits            0                       # DTB write hits
system.cpu00.dstage2_mmu.stage2_tlb.write_misses            0                       # DTB write misses
system.cpu00.dstage2_mmu.stage2_tlb.flush_tlb            0                       # Number of times complete TLB was flushed
system.cpu00.dstage2_mmu.stage2_tlb.flush_tlb_mva            0                       # Number of times TLB was flushed by MVA
system.cpu00.dstage2_mmu.stage2_tlb.flush_tlb_mva_asid            0                       # Number of times TLB was flushed by MVA & ASID
system.cpu00.dstage2_mmu.stage2_tlb.flush_tlb_asid            0                       # Number of times TLB was flushed by ASID
system.cpu00.dstage2_mmu.stage2_tlb.flush_entries            0                       # Number of entries that have been flushed from TLB
system.cpu00.dstage2_mmu.stage2_tlb.align_faults            0                       # Number of TLB faults due to alignment restrictions
system.cpu00.dstage2_mmu.stage2_tlb.prefetch_faults            0                       # Number of TLB faults due to prefetch
system.cpu00.dstage2_mmu.stage2_tlb.domain_faults            0                       # Number of TLB faults due to domain restrictions
system.cpu00.dstage2_mmu.stage2_tlb.perms_faults            0                       # Number of TLB faults due to permissions restrictions
system.cpu00.dstage2_mmu.stage2_tlb.read_accesses            0                       # DTB read accesses
system.cpu00.dstage2_mmu.stage2_tlb.write_accesses            0                       # DTB write accesses
system.cpu00.dstage2_mmu.stage2_tlb.inst_accesses            0                       # ITB inst accesses
system.cpu00.dstage2_mmu.stage2_tlb.hits            0                       # DTB hits
system.cpu00.dstage2_mmu.stage2_tlb.misses            0                       # DTB misses
system.cpu00.dstage2_mmu.stage2_tlb.accesses            0                       # DTB accesses
system.cpu00.dtb.walker.walks                       0                       # Table walker walks requested
system.cpu00.dtb.walker.walkRequestOrigin_Requested::Data            0                       # Table walker requests started/completed, data/inst
system.cpu00.dtb.walker.walkRequestOrigin_Requested::Inst            0                       # Table walker requests started/completed, data/inst
system.cpu00.dtb.walker.walkRequestOrigin_Requested::total            0                       # Table walker requests started/completed, data/inst
system.cpu00.dtb.walker.walkRequestOrigin_Completed::Data            0                       # Table walker requests started/completed, data/inst
system.cpu00.dtb.walker.walkRequestOrigin_Completed::Inst            0                       # Table walker requests started/completed, data/inst
system.cpu00.dtb.walker.walkRequestOrigin_Completed::total            0                       # Table walker requests started/completed, data/inst
system.cpu00.dtb.walker.walkRequestOrigin::total            0                       # Table walker requests started/completed, data/inst
system.cpu00.dtb.inst_hits                          0                       # ITB inst hits
system.cpu00.dtb.inst_misses                        0                       # ITB inst misses
system.cpu00.dtb.read_hits                          0                       # DTB read hits
system.cpu00.dtb.read_misses                        0                       # DTB read misses
system.cpu00.dtb.write_hits                         0                       # DTB write hits
system.cpu00.dtb.write_misses                       0                       # DTB write misses
system.cpu00.dtb.flush_tlb                          0                       # Number of times complete TLB was flushed
system.cpu00.dtb.flush_tlb_mva                      0                       # Number of times TLB was flushed by MVA
system.cpu00.dtb.flush_tlb_mva_asid                 0                       # Number of times TLB was flushed by MVA & ASID
system.cpu00.dtb.flush_tlb_asid                     0                       # Number of times TLB was flushed by ASID
system.cpu00.dtb.flush_entries                      0                       # Number of entries that have been flushed from TLB
system.cpu00.dtb.align_faults                       0                       # Number of TLB faults due to alignment restrictions
system.cpu00.dtb.prefetch_faults                    0                       # Number of TLB faults due to prefetch
system.cpu00.dtb.domain_faults                      0                       # Number of TLB faults due to domain restrictions
system.cpu00.dtb.perms_faults                       0                       # Number of TLB faults due to permissions restrictions
system.cpu00.dtb.read_accesses                      0                       # DTB read accesses
system.cpu00.dtb.write_accesses                     0                       # DTB write accesses
system.cpu00.dtb.inst_accesses                      0                       # ITB inst accesses
system.cpu00.dtb.hits                               0                       # DTB hits
system.cpu00.dtb.misses                             0                       # DTB misses
system.cpu00.dtb.accesses                           0                       # DTB accesses
system.cpu00.istage2_mmu.stage2_tlb.walker.walks            0                       # Table walker walks requested
system.cpu00.istage2_mmu.stage2_tlb.walker.walkRequestOrigin_Requested::Data            0                       # Table walker requests started/completed, data/inst
system.cpu00.istage2_mmu.stage2_tlb.walker.walkRequestOrigin_Requested::Inst            0                       # Table walker requests started/completed, data/inst
system.cpu00.istage2_mmu.stage2_tlb.walker.walkRequestOrigin_Requested::total            0                       # Table walker requests started/completed, data/inst
system.cpu00.istage2_mmu.stage2_tlb.walker.walkRequestOrigin_Completed::Data            0                       # Table walker requests started/completed, data/inst
system.cpu00.istage2_mmu.stage2_tlb.walker.walkRequestOrigin_Completed::Inst            0                       # Table walker requests started/completed, data/inst
system.cpu00.istage2_mmu.stage2_tlb.walker.walkRequestOrigin_Completed::total            0                       # Table walker requests started/completed, data/inst
system.cpu00.istage2_mmu.stage2_tlb.walker.walkRequestOrigin::total            0                       # Table walker requests started/completed, data/inst
system.cpu00.istage2_mmu.stage2_tlb.inst_hits            0                       # ITB inst hits
system.cpu00.istage2_mmu.stage2_tlb.inst_misses            0                       # ITB inst misses
system.cpu00.istage2_mmu.stage2_tlb.read_hits            0                       # DTB read hits
system.cpu00.istage2_mmu.stage2_tlb.read_misses            0                       # DTB read misses
system.cpu00.istage2_mmu.stage2_tlb.write_hits            0                       # DTB write hits
system.cpu00.istage2_mmu.stage2_tlb.write_misses            0                       # DTB write misses
system.cpu00.istage2_mmu.stage2_tlb.flush_tlb            0                       # Number of times complete TLB was flushed
system.cpu00.istage2_mmu.stage2_tlb.flush_tlb_mva            0                       # Number of times TLB was flushed by MVA
system.cpu00.istage2_mmu.stage2_tlb.flush_tlb_mva_asid            0                       # Number of times TLB was flushed by MVA & ASID
system.cpu00.istage2_mmu.stage2_tlb.flush_tlb_asid            0                       # Number of times TLB was flushed by ASID
system.cpu00.istage2_mmu.stage2_tlb.flush_entries            0                       # Number of entries that have been flushed from TLB
system.cpu00.istage2_mmu.stage2_tlb.align_faults            0                       # Number of TLB faults due to alignment restrictions
system.cpu00.istage2_mmu.stage2_tlb.prefetch_faults            0                       # Number of TLB faults due to prefetch
system.cpu00.istage2_mmu.stage2_tlb.domain_faults            0                       # Number of TLB faults due to domain restrictions
system.cpu00.istage2_mmu.stage2_tlb.perms_faults            0                       # Number of TLB faults due to permissions restrictions
system.cpu00.istage2_mmu.stage2_tlb.read_accesses            0                       # DTB read accesses
system.cpu00.istage2_mmu.stage2_tlb.write_accesses            0                       # DTB write accesses
system.cpu00.istage2_mmu.stage2_tlb.inst_accesses            0                       # ITB inst accesses
system.cpu00.istage2_mmu.stage2_tlb.hits            0                       # DTB hits
system.cpu00.istage2_mmu.stage2_tlb.misses            0                       # DTB misses
system.cpu00.istage2_mmu.stage2_tlb.accesses            0                       # DTB accesses
system.cpu00.itb.walker.walks                       0                       # Table walker walks requested
system.cpu00.itb.walker.walkRequestOrigin_Requested::Data            0                       # Table walker requests started/completed, data/inst
system.cpu00.itb.walker.walkRequestOrigin_Requested::Inst            0                       # Table walker requests started/completed, data/inst
system.cpu00.itb.walker.walkRequestOrigin_Requested::total            0                       # Table walker requests started/completed, data/inst
system.cpu00.itb.walker.walkRequestOrigin_Completed::Data            0                       # Table walker requests started/completed, data/inst
system.cpu00.itb.walker.walkRequestOrigin_Completed::Inst            0                       # Table walker requests started/completed, data/inst
system.cpu00.itb.walker.walkRequestOrigin_Completed::total            0                       # Table walker requests started/completed, data/inst
system.cpu00.itb.walker.walkRequestOrigin::total            0                       # Table walker requests started/completed, data/inst
system.cpu00.itb.inst_hits                          0                       # ITB inst hits
system.cpu00.itb.inst_misses                        0                       # ITB inst misses
system.cpu00.itb.read_hits                          0                       # DTB read hits
system.cpu00.itb.read_misses                        0                       # DTB read misses
system.cpu00.itb.write_hits                         0                       # DTB write hits
system.cpu00.itb.write_misses                       0                       # DTB write misses
system.cpu00.itb.flush_tlb                          0                       # Number of times complete TLB was flushed
system.cpu00.itb.flush_tlb_mva                      0                       # Number of times TLB was flushed by MVA
system.cpu00.itb.flush_tlb_mva_asid                 0                       # Number of times TLB was flushed by MVA & ASID
system.cpu00.itb.flush_tlb_asid                     0                       # Number of times TLB was flushed by ASID
system.cpu00.itb.flush_entries                      0                       # Number of entries that have been flushed from TLB
system.cpu00.itb.align_faults                       0                       # Number of TLB faults due to alignment restrictions
system.cpu00.itb.prefetch_faults                    0                       # Number of TLB faults due to prefetch
system.cpu00.itb.domain_faults                      0                       # Number of TLB faults due to domain restrictions
system.cpu00.itb.perms_faults                       0                       # Number of TLB faults due to permissions restrictions
system.cpu00.itb.read_accesses                      0                       # DTB read accesses
system.cpu00.itb.write_accesses                     0                       # DTB write accesses
system.cpu00.itb.inst_accesses                      0                       # ITB inst accesses
system.cpu00.itb.hits                               0                       # DTB hits
system.cpu00.itb.misses                             0                       # DTB misses
system.cpu00.itb.accesses                           0                       # DTB accesses
system.cpu00.workload.num_syscalls                 90                       # Number of system calls
system.cpu00.numCycles                         406212                       # number of cpu cycles simulated
system.cpu00.numWorkItemsStarted                    0                       # number of work items this cpu started
system.cpu00.numWorkItemsCompleted                  0                       # number of work items this cpu completed
system.cpu00.committedInsts                    377037                       # Number of instructions committed
system.cpu00.committedOps                      406168                       # Number of ops (including micro ops) committed
system.cpu00.num_int_alu_accesses              375333                       # Number of integer alu accesses
system.cpu00.num_fp_alu_accesses                   28                       # Number of float alu accesses
system.cpu00.num_func_calls                       705                       # number of times a function call or return occured
system.cpu00.num_conditional_control_insts        30630                       # number of instructions that are conditional controls
system.cpu00.num_int_insts                     375333                       # number of integer instructions
system.cpu00.num_fp_insts                          28                       # number of float instructions
system.cpu00.num_int_register_reads            761331                       # number of times the integer registers were read
system.cpu00.num_int_register_writes           317696                       # number of times the integer registers were written
system.cpu00.num_fp_register_reads                 22                       # number of times the floating registers were read
system.cpu00.num_fp_register_writes                 6                       # number of times the floating registers were written
system.cpu00.num_cc_register_reads            1218638                       # number of times the CC registers were read
system.cpu00.num_cc_register_writes            170875                       # number of times the CC registers were written
system.cpu00.num_mem_refs                      116188                       # number of memory refs
system.cpu00.num_load_insts                     70020                       # Number of load instructions
system.cpu00.num_store_insts                    46168                       # Number of store instructions
system.cpu00.num_idle_cycles                 0.002000                       # Number of idle cycles
system.cpu00.num_busy_cycles             406211.998000                       # Number of busy cycles
system.cpu00.not_idle_fraction               1.000000                       # Percentage of non-idle cycles
system.cpu00.idle_fraction                   0.000000                       # Percentage of idle cycles
system.cpu00.Branches                           31450                       # Number of branches fetched
system.cpu00.op_class::No_OpClass                   0      0.00%      0.00% # Class of executed instruction
system.cpu00.op_class::IntAlu                  232636     57.27%     57.27% # Class of executed instruction
system.cpu00.op_class::IntMult                  57385     14.13%     71.40% # Class of executed instruction
system.cpu00.op_class::IntDiv                       0      0.00%     71.40% # Class of executed instruction
system.cpu00.op_class::FloatAdd                     0      0.00%     71.40% # Class of executed instruction
system.cpu00.op_class::FloatCmp                     0      0.00%     71.40% # Class of executed instruction
system.cpu00.op_class::FloatCvt                     0      0.00%     71.40% # Class of executed instruction
system.cpu00.op_class::FloatMult                    0      0.00%     71.40% # Class of executed instruction
system.cpu00.op_class::FloatDiv                     0      0.00%     71.40% # Class of executed instruction
system.cpu00.op_class::FloatSqrt                    0      0.00%     71.40% # Class of executed instruction
system.cpu00.op_class::SimdAdd                      0      0.00%     71.40% # Class of executed instruction
system.cpu00.op_class::SimdAddAcc                   0      0.00%     71.40% # Class of executed instruction
system.cpu00.op_class::SimdAlu                      0      0.00%     71.40% # Class of executed instruction
system.cpu00.op_class::SimdCmp                      0      0.00%     71.40% # Class of executed instruction
system.cpu00.op_class::SimdCvt                      0      0.00%     71.40% # Class of executed instruction
system.cpu00.op_class::SimdMisc                     0      0.00%     71.40% # Class of executed instruction
system.cpu00.op_class::SimdMult                     0      0.00%     71.40% # Class of executed instruction
system.cpu00.op_class::SimdMultAcc                  0      0.00%     71.40% # Class of executed instruction
system.cpu00.op_class::SimdShift                    0      0.00%     71.40% # Class of executed instruction
system.cpu00.op_class::SimdShiftAcc                 0      0.00%     71.40% # Class of executed instruction
system.cpu00.op_class::SimdSqrt                     0      0.00%     71.40% # Class of executed instruction
system.cpu00.op_class::SimdFloatAdd                 0      0.00%     71.40% # Class of executed instruction
system.cpu00.op_class::SimdFloatAlu                 0      0.00%     71.40% # Class of executed instruction
system.cpu00.op_class::SimdFloatCmp                 0      0.00%     71.40% # Class of executed instruction
system.cpu00.op_class::SimdFloatCvt                 0      0.00%     71.40% # Class of executed instruction
system.cpu00.op_class::SimdFloatDiv                 0      0.00%     71.40% # Class of executed instruction
system.cpu00.op_class::SimdFloatMisc                3      0.00%     71.40% # Class of executed instruction
system.cpu00.op_class::SimdFloatMult                0      0.00%     71.40% # Class of executed instruction
system.cpu00.op_class::SimdFloatMultAcc             0      0.00%     71.40% # Class of executed instruction
system.cpu00.op_class::SimdFloatSqrt                0      0.00%     71.40% # Class of executed instruction
system.cpu00.op_class::MemRead                  70020     17.24%     88.63% # Class of executed instruction
system.cpu00.op_class::MemWrite                 46168     11.37%    100.00% # Class of executed instruction
system.cpu00.op_class::IprAccess                    0      0.00%    100.00% # Class of executed instruction
system.cpu00.op_class::InstPrefetch                 0      0.00%    100.00% # Class of executed instruction
system.cpu00.op_class::total                   406212                       # Class of executed instruction
system.cpu01.dstage2_mmu.stage2_tlb.walker.walks            0                       # Table walker walks requested
system.cpu01.dstage2_mmu.stage2_tlb.walker.walkRequestOrigin_Requested::Data            0                       # Table walker requests started/completed, data/inst
system.cpu01.dstage2_mmu.stage2_tlb.walker.walkRequestOrigin_Requested::Inst            0                       # Table walker requests started/completed, data/inst
system.cpu01.dstage2_mmu.stage2_tlb.walker.walkRequestOrigin_Requested::total            0                       # Table walker requests started/completed, data/inst
system.cpu01.dstage2_mmu.stage2_tlb.walker.walkRequestOrigin_Completed::Data            0                       # Table walker requests started/completed, data/inst
system.cpu01.dstage2_mmu.stage2_tlb.walker.walkRequestOrigin_Completed::Inst            0                       # Table walker requests started/completed, data/inst
system.cpu01.dstage2_mmu.stage2_tlb.walker.walkRequestOrigin_Completed::total            0                       # Table walker requests started/completed, data/inst
system.cpu01.dstage2_mmu.stage2_tlb.walker.walkRequestOrigin::total            0                       # Table walker requests started/completed, data/inst
system.cpu01.dstage2_mmu.stage2_tlb.inst_hits            0                       # ITB inst hits
system.cpu01.dstage2_mmu.stage2_tlb.inst_misses            0                       # ITB inst misses
system.cpu01.dstage2_mmu.stage2_tlb.read_hits            0                       # DTB read hits
system.cpu01.dstage2_mmu.stage2_tlb.read_misses            0                       # DTB read misses
system.cpu01.dstage2_mmu.stage2_tlb.write_hits            0                       # DTB write hits
system.cpu01.dstage2_mmu.stage2_tlb.write_misses            0                       # DTB write misses
system.cpu01.dstage2_mmu.stage2_tlb.flush_tlb            0                       # Number of times complete TLB was flushed
system.cpu01.dstage2_mmu.stage2_tlb.flush_tlb_mva            0                       # Number of times TLB was flushed by MVA
system.cpu01.dstage2_mmu.stage2_tlb.flush_tlb_mva_asid            0                       # Number of times TLB was flushed by MVA & ASID
system.cpu01.dstage2_mmu.stage2_tlb.flush_tlb_asid            0                       # Number of times TLB was flushed by ASID
system.cpu01.dstage2_mmu.stage2_tlb.flush_entries            0                       # Number of entries that have been flushed from TLB
system.cpu01.dstage2_mmu.stage2_tlb.align_faults            0                       # Number of TLB faults due to alignment restrictions
system.cpu01.dstage2_mmu.stage2_tlb.prefetch_faults            0                       # Number of TLB faults due to prefetch
system.cpu01.dstage2_mmu.stage2_tlb.domain_faults            0                       # Number of TLB faults due to domain restrictions
system.cpu01.dstage2_mmu.stage2_tlb.perms_faults            0                       # Number of TLB faults due to permissions restrictions
system.cpu01.dstage2_mmu.stage2_tlb.read_accesses            0                       # DTB read accesses
system.cpu01.dstage2_mmu.stage2_tlb.write_accesses            0                       # DTB write accesses
system.cpu01.dstage2_mmu.stage2_tlb.inst_accesses            0                       # ITB inst accesses
system.cpu01.dstage2_mmu.stage2_tlb.hits            0                       # DTB hits
system.cpu01.dstage2_mmu.stage2_tlb.misses            0                       # DTB misses
system.cpu01.dstage2_mmu.stage2_tlb.accesses            0                       # DTB accesses
system.cpu01.dtb.walker.walks                       0                       # Table walker walks requested
system.cpu01.dtb.walker.walkRequestOrigin_Requested::Data            0                       # Table walker requests started/completed, data/inst
system.cpu01.dtb.walker.walkRequestOrigin_Requested::Inst            0                       # Table walker requests started/completed, data/inst
system.cpu01.dtb.walker.walkRequestOrigin_Requested::total            0                       # Table walker requests started/completed, data/inst
system.cpu01.dtb.walker.walkRequestOrigin_Completed::Data            0                       # Table walker requests started/completed, data/inst
system.cpu01.dtb.walker.walkRequestOrigin_Completed::Inst            0                       # Table walker requests started/completed, data/inst
system.cpu01.dtb.walker.walkRequestOrigin_Completed::total            0                       # Table walker requests started/completed, data/inst
system.cpu01.dtb.walker.walkRequestOrigin::total            0                       # Table walker requests started/completed, data/inst
system.cpu01.dtb.inst_hits                          0                       # ITB inst hits
system.cpu01.dtb.inst_misses                        0                       # ITB inst misses
system.cpu01.dtb.read_hits                          0                       # DTB read hits
system.cpu01.dtb.read_misses                        0                       # DTB read misses
system.cpu01.dtb.write_hits                         0                       # DTB write hits
system.cpu01.dtb.write_misses                       0                       # DTB write misses
system.cpu01.dtb.flush_tlb                          0                       # Number of times complete TLB was flushed
system.cpu01.dtb.flush_tlb_mva                      0                       # Number of times TLB was flushed by MVA
system.cpu01.dtb.flush_tlb_mva_asid                 0                       # Number of times TLB was flushed by MVA & ASID
system.cpu01.dtb.flush_tlb_asid                     0                       # Number of times TLB was flushed by ASID
[...]
system.cpu15.num_fp_insts                           0                       # number of float instructions
system.cpu15.num_int_register_reads            484051                       # number of times the integer registers were read
system.cpu15.num_int_register_writes           232203                       # number of times the integer registers were written
system.cpu15.num_fp_register_reads                  0                       # number of times the floating registers were read
system.cpu15.num_fp_register_writes                 0                       # number of times the floating registers were written
system.cpu15.num_cc_register_reads             752082                       # number of times the CC registers were read
system.cpu15.num_cc_register_writes            100636                       # number of times the CC registers were written
system.cpu15.num_mem_refs                       67732                       # number of memory refs
system.cpu15.num_load_insts                     66825                       # Number of load instructions
system.cpu15.num_store_insts                      907                       # Number of store instructions
system.cpu15.num_idle_cycles             155517.001234                       # Number of idle cycles
system.cpu15.num_busy_cycles             250693.998766                       # Number of busy cycles
system.cpu15.not_idle_fraction               0.617152                       # Percentage of non-idle cycles
system.cpu15.idle_fraction                   0.382848                       # Percentage of idle cycles
system.cpu15.Branches                           16962                       # Number of branches fetched
system.cpu15.op_class::No_OpClass                   0      0.00%      0.00% # Class of executed instruction
system.cpu15.op_class::IntAlu                  133807     53.37%     53.37% # Class of executed instruction
system.cpu15.op_class::IntMult                  49155     19.61%     72.98% # Class of executed instruction
system.cpu15.op_class::IntDiv                       0      0.00%     72.98% # Class of executed instruction
system.cpu15.op_class::FloatAdd                     0      0.00%     72.98% # Class of executed instruction
system.cpu15.op_class::FloatCmp                     0      0.00%     72.98% # Class of executed instruction
system.cpu15.op_class::FloatCvt                     0      0.00%     72.98% # Class of executed instruction
system.cpu15.op_class::FloatMult                    0      0.00%     72.98% # Class of executed instruction
system.cpu15.op_class::FloatDiv                     0      0.00%     72.98% # Class of executed instruction
system.cpu15.op_class::FloatSqrt                    0      0.00%     72.98% # Class of executed instruction
system.cpu15.op_class::SimdAdd                      0      0.00%     72.98% # Class of executed instruction
system.cpu15.op_class::SimdAddAcc                   0      0.00%     72.98% # Class of executed instruction
system.cpu15.op_class::SimdAlu                      0      0.00%     72.98% # Class of executed instruction
system.cpu15.op_class::SimdCmp                      0      0.00%     72.98% # Class of executed instruction
system.cpu15.op_class::SimdCvt                      0      0.00%     72.98% # Class of executed instruction
system.cpu15.op_class::SimdMisc                     0      0.00%     72.98% # Class of executed instruction
system.cpu15.op_class::SimdMult                     0      0.00%     72.98% # Class of executed instruction
system.cpu15.op_class::SimdMultAcc                  0      0.00%     72.98% # Class of executed instruction
system.cpu15.op_class::SimdShift                    0      0.00%     72.98% # Class of executed instruction
system.cpu15.op_class::SimdShiftAcc                 0      0.00%     72.98% # Class of executed instruction
system.cpu15.op_class::SimdSqrt                     0      0.00%     72.98% # Class of executed instruction
system.cpu15.op_class::SimdFloatAdd                 0      0.00%     72.98% # Class of executed instruction
system.cpu15.op_class::SimdFloatAlu                 0      0.00%     72.98% # Class of executed instruction
system.cpu15.op_class::SimdFloatCmp                 0      0.00%     72.98% # Class of executed instruction
system.cpu15.op_class::SimdFloatCvt                 0      0.00%     72.98% # Class of executed instruction
system.cpu15.op_class::SimdFloatDiv                 0      0.00%     72.98% # Class of executed instruction
system.cpu15.op_class::SimdFloatMisc                0      0.00%     72.98% # Class of executed instruction
system.cpu15.op_class::SimdFloatMult                0      0.00%     72.98% # Class of executed instruction
system.cpu15.op_class::SimdFloatMultAcc             0      0.00%     72.98% # Class of executed instruction
system.cpu15.op_class::SimdFloatSqrt                0      0.00%     72.98% # Class of executed instruction
system.cpu15.op_class::MemRead                  66825     26.66%     99.64% # Class of executed instruction
system.cpu15.op_class::MemWrite                   907      0.36%    100.00% # Class of executed instruction
system.cpu15.op_class::IprAccess                    0      0.00%    100.00% # Class of executed instruction
system.cpu15.op_class::InstPrefetch                 0      0.00%    100.00% # Class of executed instruction
system.cpu15.op_class::total                   250694                       # Class of executed instruction
system.membus.trans_dist::ReadReq             5223121                       # Transaction distribution
system.membus.trans_dist::ReadResp            5223321                       # Transaction distribution
system.membus.trans_dist::WriteReq              59652                       # Transaction distribution
system.membus.trans_dist::WriteResp             59652                       # Transaction distribution
system.membus.trans_dist::SoftPFReq                16                       # Transaction distribution
system.membus.trans_dist::SoftPFResp               16                       # Transaction distribution
system.membus.trans_dist::LoadLockedReq           200                       # Transaction distribution
system.membus.trans_dist::StoreCondReq            200                       # Transaction distribution
system.membus.trans_dist::StoreCondResp           200                       # Transaction distribution
system.membus.pkt_count_system.cpu00.icache_port::system.mem_ctrls.port       754162                       # Packet count per connected master and slave (bytes)
system.membus.pkt_count_system.cpu00.dcache_port::system.mem_ctrls.port       232046                       # Packet count per connected master and slave (bytes)
system.membus.pkt_count_system.cpu01.icache_port::system.mem_ctrls.port       505162                       # Packet count per connected master and slave (bytes)
system.membus.pkt_count_system.cpu01.dcache_port::system.mem_ctrls.port       136166                       # Packet count per connected master and slave (bytes)
system.membus.pkt_count_system.cpu02.icache_port::system.mem_ctrls.port       504826                       # Packet count per connected master and slave (bytes)
system.membus.pkt_count_system.cpu02.dcache_port::system.mem_ctrls.port       136132                       # Packet count per connected master and slave (bytes)
system.membus.pkt_count_system.cpu03.icache_port::system.mem_ctrls.port       504482                       # Packet count per connected master and slave (bytes)
system.membus.pkt_count_system.cpu03.dcache_port::system.mem_ctrls.port       136094                       # Packet count per connected master and slave (bytes)
system.membus.pkt_count_system.cpu04.icache_port::system.mem_ctrls.port       504154                       # Packet count per connected master and slave (bytes)
system.membus.pkt_count_system.cpu04.dcache_port::system.mem_ctrls.port       136054                       # Packet count per connected master and slave (bytes)
system.membus.pkt_count_system.cpu05.icache_port::system.mem_ctrls.port       503876                       # Packet count per connected master and slave (bytes)
system.membus.pkt_count_system.cpu05.dcache_port::system.mem_ctrls.port       135928                       # Packet count per connected master and slave (bytes)
system.membus.pkt_count_system.cpu06.icache_port::system.mem_ctrls.port       503540                       # Packet count per connected master and slave (bytes)
system.membus.pkt_count_system.cpu06.dcache_port::system.mem_ctrls.port       135900                       # Packet count per connected master and slave (bytes)
system.membus.pkt_count_system.cpu07.icache_port::system.mem_ctrls.port       503204                       # Packet count per connected master and slave (bytes)
system.membus.pkt_count_system.cpu07.dcache_port::system.mem_ctrls.port       135850                       # Packet count per connected master and slave (bytes)
system.membus.pkt_count_system.cpu08.icache_port::system.mem_ctrls.port       502868                       # Packet count per connected master and slave (bytes)
system.membus.pkt_count_system.cpu08.dcache_port::system.mem_ctrls.port       135802                       # Packet count per connected master and slave (bytes)
system.membus.pkt_count_system.cpu09.icache_port::system.mem_ctrls.port       502532                       # Packet count per connected master and slave (bytes)
system.membus.pkt_count_system.cpu09.dcache_port::system.mem_ctrls.port       135778                       # Packet count per connected master and slave (bytes)
system.membus.pkt_count_system.cpu10.icache_port::system.mem_ctrls.port       502214                       # Packet count per connected master and slave (bytes)
system.membus.pkt_count_system.cpu10.dcache_port::system.mem_ctrls.port       135688                       # Packet count per connected master and slave (bytes)
system.membus.pkt_count_system.cpu11.icache_port::system.mem_ctrls.port       501918                       # Packet count per connected master and slave (bytes)
system.membus.pkt_count_system.cpu11.dcache_port::system.mem_ctrls.port       135624                       # Packet count per connected master and slave (bytes)
system.membus.pkt_count_system.cpu12.icache_port::system.mem_ctrls.port       501582                       # Packet count per connected master and slave (bytes)
system.membus.pkt_count_system.cpu12.dcache_port::system.mem_ctrls.port       135572                       # Packet count per connected master and slave (bytes)
system.membus.pkt_count_system.cpu13.icache_port::system.mem_ctrls.port       501246                       # Packet count per connected master and slave (bytes)
system.membus.pkt_count_system.cpu13.dcache_port::system.mem_ctrls.port       135538                       # Packet count per connected master and slave (bytes)
system.membus.pkt_count_system.cpu14.icache_port::system.mem_ctrls.port       500910                       # Packet count per connected master and slave (bytes)
system.membus.pkt_count_system.cpu14.dcache_port::system.mem_ctrls.port       135510                       # Packet count per connected master and slave (bytes)
system.membus.pkt_count_system.cpu15.icache_port::system.mem_ctrls.port       500566                       # Packet count per connected master and slave (bytes)
system.membus.pkt_count_system.cpu15.dcache_port::system.mem_ctrls.port       135454                       # Packet count per connected master and slave (bytes)
system.membus.pkt_count::total               10566378                       # Packet count per connected master and slave (bytes)
system.membus.pkt_size_system.cpu00.icache_port::system.mem_ctrls.port      1508324                       # Cumulative packet size per connected master and slave (bytes)
system.membus.pkt_size_system.cpu00.dcache_port::system.mem_ctrls.port       465470                       # Cumulative packet size per connected master and slave (bytes)
system.membus.pkt_size_system.cpu01.icache_port::system.mem_ctrls.port      1010324                       # Cumulative packet size per connected master and slave (bytes)
system.membus.pkt_size_system.cpu01.dcache_port::system.mem_ctrls.port       272590                       # Cumulative packet size per connected master and slave (bytes)
system.membus.pkt_size_system.cpu02.icache_port::system.mem_ctrls.port      1009652                       # Cumulative packet size per connected master and slave (bytes)
system.membus.pkt_size_system.cpu02.dcache_port::system.mem_ctrls.port       272518                       # Cumulative packet size per connected master and slave (bytes)
system.membus.pkt_size_system.cpu03.icache_port::system.mem_ctrls.port      1008964                       # Cumulative packet size per connected master and slave (bytes)
system.membus.pkt_size_system.cpu03.dcache_port::system.mem_ctrls.port       272454                       # Cumulative packet size per connected master and slave (bytes)
system.membus.pkt_size_system.cpu04.icache_port::system.mem_ctrls.port      1008308                       # Cumulative packet size per connected master and slave (bytes)
system.membus.pkt_size_system.cpu04.dcache_port::system.mem_ctrls.port       272362                       # Cumulative packet size per connected master and slave (bytes)
system.membus.pkt_size_system.cpu05.icache_port::system.mem_ctrls.port      1007752                       # Cumulative packet size per connected master and slave (bytes)
system.membus.pkt_size_system.cpu05.dcache_port::system.mem_ctrls.port       272066                       # Cumulative packet size per connected master and slave (bytes)
system.membus.pkt_size_system.cpu06.icache_port::system.mem_ctrls.port      1007080                       # Cumulative packet size per connected master and slave (bytes)
system.membus.pkt_size_system.cpu06.dcache_port::system.mem_ctrls.port       272010                       # Cumulative packet size per connected master and slave (bytes)
system.membus.pkt_size_system.cpu07.icache_port::system.mem_ctrls.port      1006408                       # Cumulative packet size per connected master and slave (bytes)
system.membus.pkt_size_system.cpu07.dcache_port::system.mem_ctrls.port       271910                       # Cumulative packet size per connected master and slave (bytes)
system.membus.pkt_size_system.cpu08.icache_port::system.mem_ctrls.port      1005736                       # Cumulative packet size per connected master and slave (bytes)
system.membus.pkt_size_system.cpu08.dcache_port::system.mem_ctrls.port       271810                       # Cumulative packet size per connected master and slave (bytes)
system.membus.pkt_size_system.cpu09.icache_port::system.mem_ctrls.port      1005064                       # Cumulative packet size per connected master and slave (bytes)
system.membus.pkt_size_system.cpu09.dcache_port::system.mem_ctrls.port       271766                       # Cumulative packet size per connected master and slave (bytes)
system.membus.pkt_size_system.cpu10.icache_port::system.mem_ctrls.port      1004428                       # Cumulative packet size per connected master and slave (bytes)
system.membus.pkt_size_system.cpu10.dcache_port::system.mem_ctrls.port       271570                       # Cumulative packet size per connected master and slave (bytes)
system.membus.pkt_size_system.cpu11.icache_port::system.mem_ctrls.port      1003836                       # Cumulative packet size per connected master and slave (bytes)
system.membus.pkt_size_system.cpu11.dcache_port::system.mem_ctrls.port       271410                       # Cumulative packet size per connected master and slave (bytes)
system.membus.pkt_size_system.cpu12.icache_port::system.mem_ctrls.port      1003164                       # Cumulative packet size per connected master and slave (bytes)
system.membus.pkt_size_system.cpu12.dcache_port::system.mem_ctrls.port       271302                       # Cumulative packet size per connected master and slave (bytes)
system.membus.pkt_size_system.cpu13.icache_port::system.mem_ctrls.port      1002492                       # Cumulative packet size per connected master and slave (bytes)
system.membus.pkt_size_system.cpu13.dcache_port::system.mem_ctrls.port       271238                       # Cumulative packet size per connected master and slave (bytes)
system.membus.pkt_size_system.cpu14.icache_port::system.mem_ctrls.port      1001820                       # Cumulative packet size per connected master and slave (bytes)
system.membus.pkt_size_system.cpu14.dcache_port::system.mem_ctrls.port       271178                       # Cumulative packet size per connected master and slave (bytes)
system.membus.pkt_size_system.cpu15.icache_port::system.mem_ctrls.port      1001132                       # Cumulative packet size per connected master and slave (bytes)
system.membus.pkt_size_system.cpu15.dcache_port::system.mem_ctrls.port       271078                       # Cumulative packet size per connected master and slave (bytes)
system.membus.pkt_size::total                21137216                       # Cumulative packet size per connected master and slave (bytes)
system.membus.snoops                                0                       # Total snoops (count)
system.membus.snoop_fanout::samples           5283189                       # Request fanout histogram
system.membus.snoop_fanout::mean            15.785249                       # Request fanout histogram
system.membus.snoop_fanout::stdev            0.410649                       # Request fanout histogram
system.membus.snoop_fanout::underflows              0      0.00%      0.00% # Request fanout histogram
system.membus.snoop_fanout::0                       0      0.00%      0.00% # Request fanout histogram
system.membus.snoop_fanout::1                       0      0.00%      0.00% # Request fanout histogram
system.membus.snoop_fanout::2                       0      0.00%      0.00% # Request fanout histogram
system.membus.snoop_fanout::3                       0      0.00%      0.00% # Request fanout histogram
system.membus.snoop_fanout::4                       0      0.00%      0.00% # Request fanout histogram
system.membus.snoop_fanout::5                       0      0.00%      0.00% # Request fanout histogram
system.membus.snoop_fanout::6                       0      0.00%      0.00% # Request fanout histogram
system.membus.snoop_fanout::7                       0      0.00%      0.00% # Request fanout histogram
system.membus.snoop_fanout::8                       0      0.00%      0.00% # Request fanout histogram
system.membus.snoop_fanout::9                       0      0.00%      0.00% # Request fanout histogram
system.membus.snoop_fanout::10                      0      0.00%      0.00% # Request fanout histogram
system.membus.snoop_fanout::11                      0      0.00%      0.00% # Request fanout histogram
system.membus.snoop_fanout::12                      0      0.00%      0.00% # Request fanout histogram
system.membus.snoop_fanout::13                      0      0.00%      0.00% # Request fanout histogram
system.membus.snoop_fanout::14                      0      0.00%      0.00% # Request fanout histogram
system.membus.snoop_fanout::15                1134568     21.48%     21.48% # Request fanout histogram
system.membus.snoop_fanout::16                4148621     78.52%    100.00% # Request fanout histogram
system.membus.snoop_fanout::overflows               0      0.00%    100.00% # Request fanout histogram
system.membus.snoop_fanout::min_value              15                       # Request fanout histogram
system.membus.snoop_fanout::max_value              16                       # Request fanout histogram
system.membus.snoop_fanout::total             5283189                       # Request fanout histogram

---------- End Simulation Statistics   ----------
