
---------- Begin Simulation Statistics ----------
sim_seconds                                  0.000192                       # Number of seconds simulated
sim_ticks                                   192492000                       # Number of ticks simulated
final_tick                                  192492000                       # Number of ticks from beginning of simulation (restored from checkpoints and never reset)
sim_freq                                 1000000000000                       # Frequency of simulated ticks
host_inst_rate                                 178688                       # Simulator instruction rate (inst/s)
host_op_rate                                   180426                       # Simulator op (including micro ops) rate (op/s)
host_tick_rate                                7895584                       # Simulator tick rate (ticks/s)
host_mem_usage                                 741152                       # Number of bytes of host memory used
host_seconds                                    24.38                       # Real time elapsed on the host
sim_insts                                     4356362                       # Number of instructions simulated
sim_ops                                       4398724                       # Number of ops (including micro ops) simulated
system.voltage_domain.voltage                       1                       # Voltage in Volts
system.clk_domain.clock                          1000                       # Clock period in ticks
system.mem_ctrls.bytes_read::cpu00.inst         31936                       # Number of bytes read from this memory
system.mem_ctrls.bytes_read::cpu00.data        117056                       # Number of bytes read from this memory
system.mem_ctrls.bytes_read::cpu01.inst           640                       # Number of bytes read from this memory
system.mem_ctrls.bytes_read::cpu01.data           256                       # Number of bytes read from this memory
system.mem_ctrls.bytes_read::cpu02.inst           640                       # Number of bytes read from this memory
system.mem_ctrls.bytes_read::cpu02.data           256                       # Number of bytes read from this memory
system.mem_ctrls.bytes_read::cpu03.data           256                       # Number of bytes read from this memory
system.mem_ctrls.bytes_read::cpu04.inst           704                       # Number of bytes read from this memory
system.mem_ctrls.bytes_read::cpu04.data           384                       # Number of bytes read from this memory
system.mem_ctrls.bytes_read::cpu05.data           256                       # Number of bytes read from this memory
system.mem_ctrls.bytes_read::cpu06.data           256                       # Number of bytes read from this memory
system.mem_ctrls.bytes_read::cpu07.inst           128                       # Number of bytes read from this memory
system.mem_ctrls.bytes_read::cpu07.data           256                       # Number of bytes read from this memory
system.mem_ctrls.bytes_read::cpu08.inst            64                       # Number of bytes read from this memory
system.mem_ctrls.bytes_read::cpu08.data           256                       # Number of bytes read from this memory
system.mem_ctrls.bytes_read::cpu09.data           256                       # Number of bytes read from this memory
system.mem_ctrls.bytes_read::cpu10.data           256                       # Number of bytes read from this memory
system.mem_ctrls.bytes_read::cpu11.data           256                       # Number of bytes read from this memory
system.mem_ctrls.bytes_read::cpu12.inst            64                       # Number of bytes read from this memory
system.mem_ctrls.bytes_read::cpu12.data           320                       # Number of bytes read from this memory
system.mem_ctrls.bytes_read::cpu13.inst           256                       # Number of bytes read from this memory
system.mem_ctrls.bytes_read::cpu13.data           256                       # Number of bytes read from this memory
system.mem_ctrls.bytes_read::cpu14.data           256                       # Number of bytes read from this memory
system.mem_ctrls.bytes_read::cpu15.inst            64                       # Number of bytes read from this memory
system.mem_ctrls.bytes_read::cpu15.data           256                       # Number of bytes read from this memory
system.mem_ctrls.bytes_read::total             155584                       # Number of bytes read from this memory
system.mem_ctrls.bytes_inst_read::cpu00.inst        31936                       # Number of instructions bytes read from this memory
system.mem_ctrls.bytes_inst_read::cpu01.inst          640                       # Number of instructions bytes read from this memory
system.mem_ctrls.bytes_inst_read::cpu02.inst          640                       # Number of instructions bytes read from this memory
system.mem_ctrls.bytes_inst_read::cpu04.inst          704                       # Number of instructions bytes read from this memory
system.mem_ctrls.bytes_inst_read::cpu07.inst          128                       # Number of instructions bytes read from this memory
system.mem_ctrls.bytes_inst_read::cpu08.inst           64                       # Number of instructions bytes read from this memory
system.mem_ctrls.bytes_inst_read::cpu12.inst           64                       # Number of instructions bytes read from this memory
system.mem_ctrls.bytes_inst_read::cpu13.inst          256                       # Number of instructions bytes read from this memory
system.mem_ctrls.bytes_inst_read::cpu15.inst           64                       # Number of instructions bytes read from this memory
system.mem_ctrls.bytes_inst_read::total         34496                       # Number of instructions bytes read from this memory
system.mem_ctrls.num_reads::cpu00.inst            499                       # Number of read requests responded to by this memory
system.mem_ctrls.num_reads::cpu00.data           1829                       # Number of read requests responded to by this memory
system.mem_ctrls.num_reads::cpu01.inst             10                       # Number of read requests responded to by this memory
system.mem_ctrls.num_reads::cpu01.data              4                       # Number of read requests responded to by this memory
system.mem_ctrls.num_reads::cpu02.inst             10                       # Number of read requests responded to by this memory
system.mem_ctrls.num_reads::cpu02.data              4                       # Number of read requests responded to by this memory
system.mem_ctrls.num_reads::cpu03.data              4                       # Number of read requests responded to by this memory
system.mem_ctrls.num_reads::cpu04.inst             11                       # Number of read requests responded to by this memory
system.mem_ctrls.num_reads::cpu04.data              6                       # Number of read requests responded to by this memory
system.mem_ctrls.num_reads::cpu05.data              4                       # Number of read requests responded to by this memory
system.mem_ctrls.num_reads::cpu06.data              4                       # Number of read requests responded to by this memory
system.mem_ctrls.num_reads::cpu07.inst              2                       # Number of read requests responded to by this memory
system.mem_ctrls.num_reads::cpu07.data              4                       # Number of read requests responded to by this memory
system.mem_ctrls.num_reads::cpu08.inst              1                       # Number of read requests responded to by this memory
system.mem_ctrls.num_reads::cpu08.data              4                       # Number of read requests responded to by this memory
system.mem_ctrls.num_reads::cpu09.data              4                       # Number of read requests responded to by this memory
system.mem_ctrls.num_reads::cpu10.data              4                       # Number of read requests responded to by this memory
system.mem_ctrls.num_reads::cpu11.data              4                       # Number of read requests responded to by this memory
system.mem_ctrls.num_reads::cpu12.inst              1                       # Number of read requests responded to by this memory
system.mem_ctrls.num_reads::cpu12.data              5                       # Number of read requests responded to by this memory
system.mem_ctrls.num_reads::cpu13.inst              4                       # Number of read requests responded to by this memory
system.mem_ctrls.num_reads::cpu13.data              4                       # Number of read requests responded to by this memory
system.mem_ctrls.num_reads::cpu14.data              4                       # Number of read requests responded to by this memory
system.mem_ctrls.num_reads::cpu15.inst              1                       # Number of read requests responded to by this memory
system.mem_ctrls.num_reads::cpu15.data              4                       # Number of read requests responded to by this memory
system.mem_ctrls.num_reads::total                2431                       # Number of read requests responded to by this memory
system.mem_ctrls.bw_read::cpu00.inst        165908194                       # Total read bandwidth from this memory (bytes/s)
system.mem_ctrls.bw_read::cpu00.data        608108389                       # Total read bandwidth from this memory (bytes/s)
system.mem_ctrls.bw_read::cpu01.inst          3324813                       # Total read bandwidth from this memory (bytes/s)
system.mem_ctrls.bw_read::cpu01.data          1329925                       # Total read bandwidth from this memory (bytes/s)
system.mem_ctrls.bw_read::cpu02.inst          3324813                       # Total read bandwidth from this memory (bytes/s)
system.mem_ctrls.bw_read::cpu02.data          1329925                       # Total read bandwidth from this memory (bytes/s)
system.mem_ctrls.bw_read::cpu03.data          1329925                       # Total read bandwidth from this memory (bytes/s)
system.mem_ctrls.bw_read::cpu04.inst          3657295                       # Total read bandwidth from this memory (bytes/s)
system.mem_ctrls.bw_read::cpu04.data          1994888                       # Total read bandwidth from this memory (bytes/s)
system.mem_ctrls.bw_read::cpu05.data          1329925                       # Total read bandwidth from this memory (bytes/s)
system.mem_ctrls.bw_read::cpu06.data          1329925                       # Total read bandwidth from this memory (bytes/s)
system.mem_ctrls.bw_read::cpu07.inst           664963                       # Total read bandwidth from this memory (bytes/s)
system.mem_ctrls.bw_read::cpu07.data          1329925                       # Total read bandwidth from this memory (bytes/s)
system.mem_ctrls.bw_read::cpu08.inst           332481                       # Total read bandwidth from this memory (bytes/s)
system.mem_ctrls.bw_read::cpu08.data          1329925                       # Total read bandwidth from this memory (bytes/s)
system.mem_ctrls.bw_read::cpu09.data          1329925                       # Total read bandwidth from this memory (bytes/s)
system.mem_ctrls.bw_read::cpu10.data          1329925                       # Total read bandwidth from this memory (bytes/s)
system.mem_ctrls.bw_read::cpu11.data          1329925                       # Total read bandwidth from this memory (bytes/s)
system.mem_ctrls.bw_read::cpu12.inst           332481                       # Total read bandwidth from this memory (bytes/s)
system.mem_ctrls.bw_read::cpu12.data          1662407                       # Total read bandwidth from this memory (bytes/s)
system.mem_ctrls.bw_read::cpu13.inst          1329925                       # Total read bandwidth from this memory (bytes/s)
system.mem_ctrls.bw_read::cpu13.data          1329925                       # Total read bandwidth from this memory (bytes/s)
system.mem_ctrls.bw_read::cpu14.data          1329925                       # Total read bandwidth from this memory (bytes/s)
system.mem_ctrls.bw_read::cpu15.inst           332481                       # Total read bandwidth from this memory (bytes/s)
system.mem_ctrls.bw_read::cpu15.data          1329925                       # Total read bandwidth from this memory (bytes/s)
system.mem_ctrls.bw_read::total             808262162                       # Total read bandwidth from this memory (bytes/s)
system.mem_ctrls.bw_inst_read::cpu00.inst    165908194                       # Instruction read bandwidth from this memory (bytes/s)
system.mem_ctrls.bw_inst_read::cpu01.inst      3324813                       # Instruction read bandwidth from this memory (bytes/s)
system.mem_ctrls.bw_inst_read::cpu02.inst      3324813                       # Instruction read bandwidth from this memory (bytes/s)
system.mem_ctrls.bw_inst_read::cpu04.inst      3657295                       # Instruction read bandwidth from this memory (bytes/s)
system.mem_ctrls.bw_inst_read::cpu07.inst       664963                       # Instruction read bandwidth from this memory (bytes/s)
system.mem_ctrls.bw_inst_read::cpu08.inst       332481                       # Instruction read bandwidth from this memory (bytes/s)
system.mem_ctrls.bw_inst_read::cpu12.inst       332481                       # Instruction read bandwidth from this memory (bytes/s)
system.mem_ctrls.bw_inst_read::cpu13.inst      1329925                       # Instruction read bandwidth from this memory (bytes/s)
system.mem_ctrls.bw_inst_read::cpu15.inst       332481                       # Instruction read bandwidth from this memory (bytes/s)
system.mem_ctrls.bw_inst_read::total        179207448                       # Instruction read bandwidth from this memory (bytes/s)
system.mem_ctrls.bw_total::cpu00.inst       165908194                       # Total bandwidth to/from this memory (bytes/s)
system.mem_ctrls.bw_total::cpu00.data       608108389                       # Total bandwidth to/from this memory (bytes/s)
system.mem_ctrls.bw_total::cpu01.inst         3324813                       # Total bandwidth to/from this memory (bytes/s)
system.mem_ctrls.bw_total::cpu01.data         1329925                       # Total bandwidth to/from this memory (bytes/s)
system.mem_ctrls.bw_total::cpu02.inst         3324813                       # Total bandwidth to/from this memory (bytes/s)
system.mem_ctrls.bw_total::cpu02.data         1329925                       # Total bandwidth to/from this memory (bytes/s)
system.mem_ctrls.bw_total::cpu03.data         1329925                       # Total bandwidth to/from this memory (bytes/s)
system.mem_ctrls.bw_total::cpu04.inst         3657295                       # Total bandwidth to/from this memory (bytes/s)
system.mem_ctrls.bw_total::cpu04.data         1994888                       # Total bandwidth to/from this memory (bytes/s)
system.mem_ctrls.bw_total::cpu05.data         1329925                       # Total bandwidth to/from this memory (bytes/s)
system.mem_ctrls.bw_total::cpu06.data         1329925                       # Total bandwidth to/from this memory (bytes/s)
system.mem_ctrls.bw_total::cpu07.inst          664963                       # Total bandwidth to/from this memory (bytes/s)
system.mem_ctrls.bw_total::cpu07.data         1329925                       # Total bandwidth to/from this memory (bytes/s)
system.mem_ctrls.bw_total::cpu08.inst          332481                       # Total bandwidth to/from this memory (bytes/s)
system.mem_ctrls.bw_total::cpu08.data         1329925                       # Total bandwidth to/from this memory (bytes/s)
system.mem_ctrls.bw_total::cpu09.data         1329925                       # Total bandwidth to/from this memory (bytes/s)
system.mem_ctrls.bw_total::cpu10.data         1329925                       # Total bandwidth to/from this memory (bytes/s)
system.mem_ctrls.bw_total::cpu11.data         1329925                       # Total bandwidth to/from this memory (bytes/s)
system.mem_ctrls.bw_total::cpu12.inst          332481                       # Total bandwidth to/from this memory (bytes/s)
system.mem_ctrls.bw_total::cpu12.data         1662407                       # Total bandwidth to/from this memory (bytes/s)
system.mem_ctrls.bw_total::cpu13.inst         1329925                       # Total bandwidth to/from this memory (bytes/s)
system.mem_ctrls.bw_total::cpu13.data         1329925                       # Total bandwidth to/from this memory (bytes/s)
system.mem_ctrls.bw_total::cpu14.data         1329925                       # Total bandwidth to/from this memory (bytes/s)
system.mem_ctrls.bw_total::cpu15.inst          332481                       # Total bandwidth to/from this memory (bytes/s)
system.mem_ctrls.bw_total::cpu15.data         1329925                       # Total bandwidth to/from this memory (bytes/s)
system.mem_ctrls.bw_total::total            808262162                       # Total bandwidth to/from this memory (bytes/s)
system.mem_ctrls.readReqs                        2431                       # Number of read requests accepted
system.mem_ctrls.writeReqs                          0                       # Number of write requests accepted
system.mem_ctrls.readBursts                      2431                       # Number of DRAM read bursts, including those serviced by the write queue
system.mem_ctrls.writeBursts                        0                       # Number of DRAM write bursts, including those merged in the write queue
system.mem_ctrls.bytesReadDRAM                 155584                       # Total number of bytes read from DRAM
system.mem_ctrls.bytesReadWrQ                       0                       # Total number of bytes read from write queue
system.mem_ctrls.bytesWritten                       0                       # Total number of bytes written to DRAM
system.mem_ctrls.bytesReadSys                  155584                       # Total read bytes from the system interface side
system.mem_ctrls.bytesWrittenSys                    0                       # Total written bytes from the system interface side
system.mem_ctrls.servicedByWrQ                      0                       # Number of DRAM read bursts serviced by the write queue
system.mem_ctrls.mergedWrBursts                     0                       # Number of DRAM write bursts merged with an existing one
system.mem_ctrls.neitherReadNorWriteReqs           21                       # Number of requests that are neither read nor write
system.mem_ctrls.perBankRdBursts::0               120                       # Per bank write bursts
system.mem_ctrls.perBankRdBursts::1               133                       # Per bank write bursts
system.mem_ctrls.perBankRdBursts::2               133                       # Per bank write bursts
system.mem_ctrls.perBankRdBursts::3               231                       # Per bank write bursts
system.mem_ctrls.perBankRdBursts::4               192                       # Per bank write bursts
system.mem_ctrls.perBankRdBursts::5               145                       # Per bank write bursts
system.mem_ctrls.perBankRdBursts::6               209                       # Per bank write bursts
system.mem_ctrls.perBankRdBursts::7               159                       # Per bank write bursts
system.mem_ctrls.perBankRdBursts::8               142                       # Per bank write bursts
system.mem_ctrls.perBankRdBursts::9               138                       # Per bank write bursts
system.mem_ctrls.perBankRdBursts::10              128                       # Per bank write bursts
system.mem_ctrls.perBankRdBursts::11              140                       # Per bank write bursts
system.mem_ctrls.perBankRdBursts::12              134                       # Per bank write bursts
system.mem_ctrls.perBankRdBursts::13              161                       # Per bank write bursts
system.mem_ctrls.perBankRdBursts::14              166                       # Per bank write bursts
system.mem_ctrls.perBankRdBursts::15              100                       # Per bank write bursts
system.mem_ctrls.perBankWrBursts::0                 0                       # Per bank write bursts
system.mem_ctrls.perBankWrBursts::1                 0                       # Per bank write bursts
system.mem_ctrls.perBankWrBursts::2                 0                       # Per bank write bursts
system.mem_ctrls.perBankWrBursts::3                 0                       # Per bank write bursts
system.mem_ctrls.perBankWrBursts::4                 0                       # Per bank write bursts
system.mem_ctrls.perBankWrBursts::5                 0                       # Per bank write bursts
system.mem_ctrls.perBankWrBursts::6                 0                       # Per bank write bursts
system.mem_ctrls.perBankWrBursts::7                 0                       # Per bank write bursts
system.mem_ctrls.perBankWrBursts::8                 0                       # Per bank write bursts
system.mem_ctrls.perBankWrBursts::9                 0                       # Per bank write bursts
system.mem_ctrls.perBankWrBursts::10                0                       # Per bank write bursts
system.mem_ctrls.perBankWrBursts::11                0                       # Per bank write bursts
system.mem_ctrls.perBankWrBursts::12                0                       # Per bank write bursts
system.mem_ctrls.perBankWrBursts::13                0                       # Per bank write bursts
system.mem_ctrls.perBankWrBursts::14                0                       # Per bank write bursts
system.mem_ctrls.perBankWrBursts::15                0                       # Per bank write bursts
system.mem_ctrls.numRdRetry                         0                       # Number of times read queue was full causing retry
system.mem_ctrls.numWrRetry                         0                       # Number of times write queue was full causing retry
system.mem_ctrls.totGap                     192448500                       # Total gap between requests
system.mem_ctrls.readPktSize::0                     0                       # Read request sizes (log2)
system.mem_ctrls.readPktSize::1                     0                       # Read request sizes (log2)
system.mem_ctrls.readPktSize::2                     0                       # Read request sizes (log2)
system.mem_ctrls.readPktSize::3                     0                       # Read request sizes (log2)
system.mem_ctrls.readPktSize::4                     0                       # Read request sizes (log2)
system.mem_ctrls.readPktSize::5                     0                       # Read request sizes (log2)
system.mem_ctrls.readPktSize::6                  2431                       # Read request sizes (log2)
system.mem_ctrls.writePktSize::0                    0                       # Write request sizes (log2)
system.mem_ctrls.writePktSize::1                    0                       # Write request sizes (log2)
system.mem_ctrls.writePktSize::2                    0                       # Write request sizes (log2)
system.mem_ctrls.writePktSize::3                    0                       # Write request sizes (log2)
system.mem_ctrls.writePktSize::4                    0                       # Write request sizes (log2)
system.mem_ctrls.writePktSize::5                    0                       # Write request sizes (log2)
system.mem_ctrls.writePktSize::6                    0                       # Write request sizes (log2)
system.mem_ctrls.rdQLenPdf::0                    1357                       # What read queue length does an incoming req see
system.mem_ctrls.rdQLenPdf::1                     917                       # What read queue length does an incoming req see
system.mem_ctrls.rdQLenPdf::2                      98                       # What read queue length does an incoming req see
system.mem_ctrls.rdQLenPdf::3                      31                       # What read queue length does an incoming req see
system.mem_ctrls.rdQLenPdf::4                      10                       # What read queue length does an incoming req see
system.mem_ctrls.rdQLenPdf::5                       5                       # What read queue length does an incoming req see
system.mem_ctrls.rdQLenPdf::6                       2                       # What read queue length does an incoming req see
system.mem_ctrls.rdQLenPdf::7                       2                       # What read queue length does an incoming req see
system.mem_ctrls.rdQLenPdf::8                       2                       # What read queue length does an incoming req see
system.mem_ctrls.rdQLenPdf::9                       1                       # What read queue length does an incoming req see
system.mem_ctrls.rdQLenPdf::10                      2                       # What read queue length does an incoming req see
system.mem_ctrls.rdQLenPdf::11                      2                       # What read queue length does an incoming req see
system.mem_ctrls.rdQLenPdf::12                      1                       # What read queue length does an incoming req see
system.mem_ctrls.rdQLenPdf::13                      1                       # What read queue length does an incoming req see
system.mem_ctrls.rdQLenPdf::14                      0                       # What read queue length does an incoming req see
system.mem_ctrls.rdQLenPdf::15                      0                       # What read queue length does an incoming req see
system.mem_ctrls.rdQLenPdf::16                      0                       # What read queue length does an incoming req see
system.mem_ctrls.rdQLenPdf::17                      0                       # What read queue length does an incoming req see
system.mem_ctrls.rdQLenPdf::18                      0                       # What read queue length does an incoming req see
system.mem_ctrls.rdQLenPdf::19                      0                       # What read queue length does an incoming req see
system.mem_ctrls.rdQLenPdf::20                      0                       # What read queue length does an incoming req see
system.mem_ctrls.rdQLenPdf::21                      0                       # What read queue length does an incoming req see
system.mem_ctrls.rdQLenPdf::22                      0                       # What read queue length does an incoming req see
system.mem_ctrls.rdQLenPdf::23                      0                       # What read queue length does an incoming req see
system.mem_ctrls.rdQLenPdf::24                      0                       # What read queue length does an incoming req see
system.mem_ctrls.rdQLenPdf::25                      0                       # What read queue length does an incoming req see
system.mem_ctrls.rdQLenPdf::26                      0                       # What read queue length does an incoming req see
system.mem_ctrls.rdQLenPdf::27                      0                       # What read queue length does an incoming req see
system.mem_ctrls.rdQLenPdf::28                      0                       # What read queue length does an incoming req see
system.mem_ctrls.rdQLenPdf::29                      0                       # What read queue length does an incoming req see
system.mem_ctrls.rdQLenPdf::30                      0                       # What read queue length does an incoming req see
system.mem_ctrls.rdQLenPdf::31                      0                       # What read queue length does an incoming req see
system.mem_ctrls.wrQLenPdf::0                       0                       # What write queue length does an incoming req see
system.mem_ctrls.wrQLenPdf::1                       0                       # What write queue length does an incoming req see
system.mem_ctrls.wrQLenPdf::2                       0                       # What write queue length does an incoming req see
system.mem_ctrls.wrQLenPdf::3                       0                       # What write queue length does an incoming req see
system.mem_ctrls.wrQLenPdf::4                       0                       # What write queue length does an incoming req see
system.mem_ctrls.wrQLenPdf::5                       0                       # What write queue length does an incoming req see
system.mem_ctrls.wrQLenPdf::6                       0                       # What write queue length does an incoming req see
system.mem_ctrls.wrQLenPdf::7                       0                       # What write queue length does an incoming req see
system.mem_ctrls.wrQLenPdf::8                       0                       # What write queue length does an incoming req see
system.mem_ctrls.wrQLenPdf::9                       0                       # What write queue length does an incoming req see
system.mem_ctrls.wrQLenPdf::10                      0                       # What write queue length does an incoming req see
system.mem_ctrls.wrQLenPdf::11                      0                       # What write queue length does an incoming req see
system.mem_ctrls.wrQLenPdf::12                      0                       # What write queue length does an incoming req see
system.mem_ctrls.wrQLenPdf::13                      0                       # What write queue length does an incoming req see
system.mem_ctrls.wrQLenPdf::14                      0                       # What write queue length does an incoming req see
system.mem_ctrls.wrQLenPdf::15                      0                       # What write queue length does an incoming req see
system.mem_ctrls.wrQLenPdf::16                      0                       # What write queue length does an incoming req see
system.mem_ctrls.wrQLenPdf::17                      0                       # What write queue length does an incoming req see
system.mem_ctrls.wrQLenPdf::18                      0                       # What write queue length does an incoming req see
system.mem_ctrls.wrQLenPdf::19                      0                       # What write queue length does an incoming req see
system.mem_ctrls.wrQLenPdf::20                      0                       # What write queue length does an incoming req see
system.mem_ctrls.wrQLenPdf::21                      0                       # What write queue length does an incoming req see
system.mem_ctrls.wrQLenPdf::22                      0                       # What write queue length does an incoming req see
system.mem_ctrls.wrQLenPdf::23                      0                       # What write queue length does an incoming req see
system.mem_ctrls.wrQLenPdf::24                      0                       # What write queue length does an incoming req see
system.mem_ctrls.wrQLenPdf::25                      0                       # What write queue length does an incoming req see
system.mem_ctrls.wrQLenPdf::26                      0                       # What write queue length does an incoming req see
system.mem_ctrls.wrQLenPdf::27                      0                       # What write queue length does an incoming req see
system.mem_ctrls.wrQLenPdf::28                      0                       # What write queue length does an incoming req see
system.mem_ctrls.wrQLenPdf::29                      0                       # What write queue length does an incoming req see
system.mem_ctrls.wrQLenPdf::30                      0                       # What write queue length does an incoming req see
system.mem_ctrls.wrQLenPdf::31                      0                       # What write queue length does an incoming req see
system.mem_ctrls.wrQLenPdf::32                      0                       # What write queue length does an incoming req see
system.mem_ctrls.wrQLenPdf::33                      0                       # What write queue length does an incoming req see
system.mem_ctrls.wrQLenPdf::34                      0                       # What write queue length does an incoming req see
system.mem_ctrls.wrQLenPdf::35                      0                       # What write queue length does an incoming req see
system.mem_ctrls.wrQLenPdf::36                      0                       # What write queue length does an incoming req see
system.mem_ctrls.wrQLenPdf::37                      0                       # What write queue length does an incoming req see
system.mem_ctrls.wrQLenPdf::38                      0                       # What write queue length does an incoming req see
system.mem_ctrls.wrQLenPdf::39                      0                       # What write queue length does an incoming req see
system.mem_ctrls.wrQLenPdf::40                      0                       # What write queue length does an incoming req see
system.mem_ctrls.wrQLenPdf::41                      0                       # What write queue length does an incoming req see
system.mem_ctrls.wrQLenPdf::42                      0                       # What write queue length does an incoming req see
system.mem_ctrls.wrQLenPdf::43                      0                       # What write queue length does an incoming req see
system.mem_ctrls.wrQLenPdf::44                      0                       # What write queue length does an incoming req see
system.mem_ctrls.wrQLenPdf::45                      0                       # What write queue length does an incoming req see
system.mem_ctrls.wrQLenPdf::46                      0                       # What write queue length does an incoming req see
system.mem_ctrls.wrQLenPdf::47                      0                       # What write queue length does an incoming req see
system.mem_ctrls.wrQLenPdf::48                      0                       # What write queue length does an incoming req see
system.mem_ctrls.wrQLenPdf::49                      0                       # What write queue length does an incoming req see
system.mem_ctrls.wrQLenPdf::50                      0                       # What write queue length does an incoming req see
system.mem_ctrls.wrQLenPdf::51                      0                       # What write queue length does an incoming req see
system.mem_ctrls.wrQLenPdf::52                      0                       # What write queue length does an incoming req see
system.mem_ctrls.wrQLenPdf::53                      0                       # What write queue length does an incoming req see
system.mem_ctrls.wrQLenPdf::54                      0                       # What write queue length does an incoming req see
system.mem_ctrls.wrQLenPdf::55                      0                       # What write queue length does an incoming req see
system.mem_ctrls.wrQLenPdf::56                      0                       # What write queue length does an incoming req see
system.mem_ctrls.wrQLenPdf::57                      0                       # What write queue length does an incoming req see
system.mem_ctrls.wrQLenPdf::58                      0                       # What write queue length does an incoming req see
system.mem_ctrls.wrQLenPdf::59                      0                       # What write queue length does an incoming req see
system.mem_ctrls.wrQLenPdf::60                      0                       # What write queue length does an incoming req see
system.mem_ctrls.wrQLenPdf::61                      0                       # What write queue length does an incoming req see
system.mem_ctrls.wrQLenPdf::62                      0                       # What write queue length does an incoming req see
system.mem_ctrls.wrQLenPdf::63                      0                       # What write queue length does an incoming req see
system.mem_ctrls.bytesPerActivate::samples          364                       # Bytes accessed per row activation
system.mem_ctrls.bytesPerActivate::mean    422.681319                       # Bytes accessed per row activation
system.mem_ctrls.bytesPerActivate::gmean   222.212534                       # Bytes accessed per row activation
system.mem_ctrls.bytesPerActivate::stdev   417.249683                       # Bytes accessed per row activation
system.mem_ctrls.bytesPerActivate::0-127          144     39.56%     39.56% # Bytes accessed per row activation
system.mem_ctrls.bytesPerActivate::128-255           50     13.74%     53.30% # Bytes accessed per row activation
system.mem_ctrls.bytesPerActivate::256-383           31      8.52%     61.81% # Bytes accessed per row activation
system.mem_ctrls.bytesPerActivate::384-511            9      2.47%     64.29% # Bytes accessed per row activation
system.mem_ctrls.bytesPerActivate::512-639            6      1.65%     65.93% # Bytes accessed per row activation
system.mem_ctrls.bytesPerActivate::640-767            9      2.47%     68.41% # Bytes accessed per row activation
system.mem_ctrls.bytesPerActivate::768-895            4      1.10%     69.51% # Bytes accessed per row activation
system.mem_ctrls.bytesPerActivate::896-1023           11      3.02%     72.53% # Bytes accessed per row activation
system.mem_ctrls.bytesPerActivate::1024-1151          100     27.47%    100.00% # Bytes accessed per row activation
system.mem_ctrls.bytesPerActivate::total          364                       # Bytes accessed per row activation
system.mem_ctrls.totQLat                     21791750                       # Total ticks spent queuing
system.mem_ctrls.totMemAccLat                67373000                       # Total ticks spent from burst creation until serviced by the DRAM
system.mem_ctrls.totBusLat                   12155000                       # Total ticks spent in databus transfers
system.mem_ctrls.avgQLat                      8964.11                       # Average queueing delay per DRAM burst
system.mem_ctrls.avgBusLat                    5000.00                       # Average bus latency per DRAM burst
system.mem_ctrls.avgMemAccLat                27714.11                       # Average memory access latency per DRAM burst
system.mem_ctrls.avgRdBW                       808.26                       # Average DRAM read bandwidth in MiByte/s
system.mem_ctrls.avgWrBW                         0.00                       # Average achieved write bandwidth in MiByte/s
system.mem_ctrls.avgRdBWSys                    808.26                       # Average system read bandwidth in MiByte/s
system.mem_ctrls.avgWrBWSys                      0.00                       # Average system write bandwidth in MiByte/s
system.mem_ctrls.peakBW                      12800.00                       # Theoretical peak bandwidth in MiByte/s
system.mem_ctrls.busUtil                         6.31                       # Data bus utilization in percentage
system.mem_ctrls.busUtilRead                     6.31                       # Data bus utilization in percentage for reads
system.mem_ctrls.busUtilWrite                    0.00                       # Data bus utilization in percentage for writes
system.mem_ctrls.avgRdQLen                       2.43                       # Average read queue length when enqueuing
system.mem_ctrls.avgWrQLen                       0.00                       # Average write queue length when enqueuing
system.mem_ctrls.readRowHits                     2057                       # Number of row buffer hits during reads
system.mem_ctrls.writeRowHits                       0                       # Number of row buffer hits during writes
system.mem_ctrls.readRowHitRate                 84.62                       # Row buffer hit rate for reads
system.mem_ctrls.writeRowHitRate                  nan                       # Row buffer hit rate for writes
system.mem_ctrls.avgGap                      79164.34                       # Average gap between requests
system.mem_ctrls.pageHitRate                    84.62                       # Row buffer hit rate, read and write combined
system.mem_ctrls_0.actEnergy                  2018520                       # Energy for activate commands per rank (pJ)
system.mem_ctrls_0.preEnergy                  1101375                       # Energy for precharge commands per rank (pJ)
system.mem_ctrls_0.readEnergy                10147800                       # Energy for read commands per rank (pJ)
system.mem_ctrls_0.writeEnergy                      0                       # Energy for write commands per rank (pJ)
system.mem_ctrls_0.refreshEnergy             12205440                       # Energy for refresh commands per rank (pJ)
system.mem_ctrls_0.actBackEnergy             55494630                       # Energy for active background per rank (pJ)
system.mem_ctrls_0.preBackEnergy             63590250                       # Energy for precharge background per rank (pJ)
system.mem_ctrls_0.totalEnergy              144558015                       # Total energy per rank (pJ)
system.mem_ctrls_0.averagePower            772.557247                       # Core power per rank (mW)
system.mem_ctrls_0.memoryStateTime::IDLE    106466250                       # Time in different power states
system.mem_ctrls_0.memoryStateTime::REF       6240000                       # Time in different power states
system.mem_ctrls_0.memoryStateTime::PRE_PDN            0                       # Time in different power states
system.mem_ctrls_0.memoryStateTime::ACT      75722250                       # Time in different power states
system.mem_ctrls_0.memoryStateTime::ACT_PDN            0                       # Time in different power states
system.mem_ctrls_1.actEnergy                   680400                       # Energy for activate commands per rank (pJ)
system.mem_ctrls_1.preEnergy                   371250                       # Energy for precharge commands per rank (pJ)
system.mem_ctrls_1.readEnergy                 8353800                       # Energy for read commands per rank (pJ)
system.mem_ctrls_1.writeEnergy                      0                       # Energy for write commands per rank (pJ)
system.mem_ctrls_1.refreshEnergy             12205440                       # Energy for refresh commands per rank (pJ)
system.mem_ctrls_1.actBackEnergy             60654555                       # Energy for active background per rank (pJ)
system.mem_ctrls_1.preBackEnergy             59064000                       # Energy for precharge background per rank (pJ)
system.mem_ctrls_1.totalEnergy              141329445                       # Total energy per rank (pJ)
system.mem_ctrls_1.averagePower            755.302893                       # Core power per rank (mW)
system.mem_ctrls_1.memoryStateTime::IDLE     99971250                       # Time in different power states
system.mem_ctrls_1.memoryStateTime::REF       6240000                       # Time in different power states
system.mem_ctrls_1.memoryStateTime::PRE_PDN            0                       # Time in different power states
system.mem_ctrls_1.memoryStateTime::ACT      83335750                       # Time in different power states
system.mem_ctrls_1.memoryStateTime::ACT_PDN            0                       # Time in different power states
system.cpu00.branchPred.lookups                 40513                       # Number of BP lookups
system.cpu00.branchPred.condPredicted           37955                       # Number of conditional branches predicted
system.cpu00.branchPred.condIncorrect            1331                       # Number of conditional branches incorrect
system.cpu00.branchPred.BTBLookups              37775                       # Number of BTB lookups
system.cpu00.branchPred.BTBHits                 34108                       # Number of BTB hits
system.cpu00.branchPred.BTBCorrect                  0                       # Number of correct BTB predictions (this stat may not work properly.
system.cpu00.branchPred.BTBHitPct           90.292522                       # BTB Hit Percentage
system.cpu00.branchPred.usedRAS                   988                       # Number of times the RAS was used to get a target.
system.cpu00.branchPred.RASInCorrect               13                       # Number of incorrect RAS predictions.
system.cpu_voltage_domain.voltage                   1                       # Voltage in Volts
system.cpu_clk_domain.clock                       500                       # Clock period in ticks
system.cpu00.dstage2_mmu.stage2_tlb.walker.walks            0                       # Table walker walks requested
system.cpu00.dstage2_mmu.stage2_tlb.walker.walkRequestOrigin_Requested::Data            0                       # Table walker requests started/completed, data/inst
system.cpu00.dstage2_mmu.stage2_tlb.walker.walkRequestOrigin_Requested::Inst            0                       # Table walker requests started/completed, data/inst
system.cpu00.dstage2_mmu.stage2_tlb.walker.walkRequestOrigin_Requested::total            0                       # Table walker requests started/completed, data/inst
system.cpu00.dstage2_mmu.stage2_tlb.walker.walkRequestOrigin_Completed::Data            0                       # Table walker requests started/completed, data/inst
system.cpu00.dstage2_mmu.stage2_tlb.walker.walkRequestOrigin_Completed::Inst            0                       # Table walker requests started/completed, data/inst
system.cpu00.dstage2_mmu.stage2_tlb.walker.walkRequestOrigin_Completed::total            0                       # Table walker requests started/completed, data/inst
system.cpu00.dstage2_mmu.stage2_tlb.walker.walkRequestOrigin::total            0                       # Table walker requests started/completed, data/inst
system.cpu00.dstage2_mmu.stage2_tlb.inst_hits            0                       # ITB inst hits
system.cpu00.dstage2_mmu.stage2_tlb.inst_misses            0                       # ITB inst misses
system.cpu00.dstage2_mmu.stage2_tlb.read_hits            0                       # DTB read hits
system.cpu00.dstage2_mmu.stage2_tlb.read_misses            0                       # DTB read misses
system.cpu00.dstage2_mmu.stage2_tlb.write_hits            0                       # DTB write hits
system.cpu00.dstage2_mmu.stage2_tlb.write_misses            0                       # DTB write misses
system.cpu00.dstage2_mmu.stage2_tlb.flush_tlb            0                       # Number of times complete TLB was flushed
system.cpu00.dstage2_mmu.stage2_tlb.flush_tlb_mva            0                       # Number of times TLB was flushed by MVA
system.cpu00.dstage2_mmu.stage2_tlb.flush_tlb_mva_asid            0                       # Number of times TLB was flushed by MVA & ASID
system.cpu00.dstage2_mmu.stage2_tlb.flush_tlb_asid            0                       # Number of times TLB was flushed by ASID
system.cpu00.dstage2_mmu.stage2_tlb.flush_entries            0                       # Number of entries that have been flushed from TLB
system.cpu00.dstage2_mmu.stage2_tlb.align_faults            0                       # Number of TLB faults due to alignment restrictions
system.cpu00.dstage2_mmu.stage2_tlb.prefetch_faults            0                       # Number of TLB faults due to prefetch
system.cpu00.dstage2_mmu.stage2_tlb.domain_faults            0                       # Number of TLB faults due to domain restrictions
system.cpu00.dstage2_mmu.stage2_tlb.perms_faults            0                       # Number of TLB faults due to permissions restrictions
system.cpu00.dstage2_mmu.stage2_tlb.read_accesses            0                       # DTB read accesses
system.cpu00.dstage2_mmu.stage2_tlb.write_accesses            0                       # DTB write accesses
system.cpu00.dstage2_mmu.stage2_tlb.inst_accesses            0                       # ITB inst accesses
system.cpu00.dstage2_mmu.stage2_tlb.hits            0                       # DTB hits
system.cpu00.dstage2_mmu.stage2_tlb.misses            0                       # DTB misses
system.cpu00.dstage2_mmu.stage2_tlb.accesses            0                       # DTB accesses
system.cpu00.dtb.walker.walks                       0                       # Table walker walks requested
system.cpu00.dtb.walker.walkRequestOrigin_Requested::Data            0                       # Table walker requests started/completed, data/inst
system.cpu00.dtb.walker.walkRequestOrigin_Requested::Inst            0                       # Table walker requests started/completed, data/inst
system.cpu00.dtb.walker.walkRequestOrigin_Requested::total            0                       # Table walker requests started/completed, data/inst
system.cpu00.dtb.walker.walkRequestOrigin_Completed::Data            0                       # Table walker requests started/completed, data/inst
system.cpu00.dtb.walker.walkRequestOrigin_Completed::Inst            0                       # Table walker requests started/completed, data/inst
system.cpu00.dtb.walker.walkRequestOrigin_Completed::total            0                       # Table walker requests started/completed, data/inst
system.cpu00.dtb.walker.walkRequestOrigin::total            0                       # Table walker requests started/completed, data/inst
system.cpu00.dtb.inst_hits                          0                       # ITB inst hits
system.cpu00.dtb.inst_misses                        0                       # ITB inst misses
system.cpu00.dtb.read_hits                          0                       # DTB read hits
system.cpu00.dtb.read_misses                        0                       # DTB read misses
system.cpu00.dtb.write_hits                         0                       # DTB write hits
system.cpu00.dtb.write_misses                       0                       # DTB write misses
system.cpu00.dtb.flush_tlb                          0                       # Number of times complete TLB was flushed
system.cpu00.dtb.flush_tlb_mva                      0                       # Number of times TLB was flushed by MVA
system.cpu00.dtb.flush_tlb_mva_asid                 0                       # Number of times TLB was flushed by MVA & ASID
system.cpu00.dtb.flush_tlb_asid                     0                       # Number of times TLB was flushed by ASID
system.cpu00.dtb.flush_entries                      0                       # Number of entries that have been flushed from TLB
system.cpu00.dtb.align_faults                       0                       # Number of TLB faults due to alignment restrictions
system.cpu00.dtb.prefetch_faults                    0                       # Number of TLB faults due to prefetch
system.cpu00.dtb.domain_faults                      0                       # Number of TLB faults due to domain restrictions
system.cpu00.dtb.perms_faults                       0                       # Number of TLB faults due to permissions restrictions
system.cpu00.dtb.read_accesses                      0                       # DTB read accesses
system.cpu00.dtb.write_accesses                     0                       # DTB write accesses
system.cpu00.dtb.inst_accesses                      0                       # ITB inst accesses
system.cpu00.dtb.hits                               0                       # DTB hits
system.cpu00.dtb.misses                             0                       # DTB misses
system.cpu00.dtb.accesses                           0                       # DTB accesses
system.cpu00.istage2_mmu.stage2_tlb.walker.walks            0                       # Table walker walks requested
system.cpu00.istage2_mmu.stage2_tlb.walker.walkRequestOrigin_Requested::Data            0                       # Table walker requests started/completed, data/inst
system.cpu00.istage2_mmu.stage2_tlb.walker.walkRequestOrigin_Requested::Inst            0                       # Table walker requests started/completed, data/inst
system.cpu00.istage2_mmu.stage2_tlb.walker.walkRequestOrigin_Requested::total            0                       # Table walker requests started/completed, data/inst
system.cpu00.istage2_mmu.stage2_tlb.walker.walkRequestOrigin_Completed::Data            0                       # Table walker requests started/completed, data/inst
system.cpu00.istage2_mmu.stage2_tlb.walker.walkRequestOrigin_Completed::Inst            0                       # Table walker requests started/completed, data/inst
system.cpu00.istage2_mmu.stage2_tlb.walker.walkRequestOrigin_Completed::total            0                       # Table walker requests started/completed, data/inst
system.cpu00.istage2_mmu.stage2_tlb.walker.walkRequestOrigin::total            0                       # Table walker requests started/completed, data/inst
system.cpu00.istage2_mmu.stage2_tlb.inst_hits            0                       # ITB inst hits
system.cpu00.istage2_mmu.stage2_tlb.inst_misses            0                       # ITB inst misses
system.cpu00.istage2_mmu.stage2_tlb.read_hits            0                       # DTB read hits
system.cpu00.istage2_mmu.stage2_tlb.read_misses            0                       # DTB read misses
system.cpu00.istage2_mmu.stage2_tlb.write_hits            0                       # DTB write hits
system.cpu00.istage2_mmu.stage2_tlb.write_misses            0                       # DTB write misses
system.cpu00.istage2_mmu.stage2_tlb.flush_tlb            0                       # Number of times complete TLB was flushed
system.cpu00.istage2_mmu.stage2_tlb.flush_tlb_mva            0                       # Number of times TLB was flushed by MVA
system.cpu00.istage2_mmu.stage2_tlb.flush_tlb_mva_asid            0                       # Number of times TLB was flushed by MVA & ASID
system.cpu00.istage2_mmu.stage2_tlb.flush_tlb_asid            0                       # Number of times TLB was flushed by ASID
system.cpu00.istage2_mmu.stage2_tlb.flush_entries            0                       # Number of entries that have been flushed from TLB
system.cpu00.istage2_mmu.stage2_tlb.align_faults            0                       # Number of TLB faults due to alignment restrictions
system.cpu00.istage2_mmu.stage2_tlb.prefetch_faults            0                       # Number of TLB faults due to prefetch
system.cpu00.istage2_mmu.stage2_tlb.domain_faults            0                       # Number of TLB faults due to domain restrictions
system.cpu00.istage2_mmu.stage2_tlb.perms_faults            0                       # Number of TLB faults due to permissions restrictions
system.cpu00.istage2_mmu.stage2_tlb.read_accesses            0                       # DTB read accesses
system.cpu00.istage2_mmu.stage2_tlb.write_accesses            0                       # DTB write accesses
system.cpu00.istage2_mmu.stage2_tlb.inst_accesses            0                       # ITB inst accesses
system.cpu00.istage2_mmu.stage2_tlb.hits            0                       # DTB hits
system.cpu00.istage2_mmu.stage2_tlb.misses            0                       # DTB misses
system.cpu00.istage2_mmu.stage2_tlb.accesses            0                       # DTB accesses
system.cpu00.itb.walker.walks                       0                       # Table walker walks requested
system.cpu00.itb.walker.walkRequestOrigin_Requested::Data            0                       # Table walker requests started/completed, data/inst
system.cpu00.itb.walker.walkRequestOrigin_Requested::Inst            0                       # Table walker requests started/completed, data/inst
system.cpu00.itb.walker.walkRequestOrigin_Requested::total            0                       # Table walker requests started/completed, data/inst
system.cpu00.itb.walker.walkRequestOrigin_Completed::Data            0                       # Table walker requests started/completed, data/inst
system.cpu00.itb.walker.walkRequestOrigin_Completed::Inst            0                       # Table walker requests started/completed, data/inst
system.cpu00.itb.walker.walkRequestOrigin_Completed::total            0                       # Table walker requests started/completed, data/inst
system.cpu00.itb.walker.walkRequestOrigin::total            0                       # Table walker requests started/completed, data/inst
system.cpu00.itb.inst_hits                          0                       # ITB inst hits
system.cpu00.itb.inst_misses                        0                       # ITB inst misses
system.cpu00.itb.read_hits                          0                       # DTB read hits
system.cpu00.itb.read_misses                        0                       # DTB read misses
system.cpu00.itb.write_hits                         0                       # DTB write hits
system.cpu00.itb.write_misses                       0                       # DTB write misses
system.cpu00.itb.flush_tlb                          0                       # Number of times complete TLB was flushed
system.cpu00.itb.flush_tlb_mva                      0                       # Number of times TLB was flushed by MVA
system.cpu00.itb.flush_tlb_mva_asid                 0                       # Number of times TLB was flushed by MVA & ASID
system.cpu00.itb.flush_tlb_asid                     0                       # Number of times TLB was flushed by ASID
system.cpu00.itb.flush_entries                      0                       # Number of entries that have been flushed from TLB
system.cpu00.itb.align_faults                       0                       # Number of TLB faults due to alignment restrictions
system.cpu00.itb.prefetch_faults                    0                       # Number of TLB faults due to prefetch
system.cpu00.itb.domain_faults                      0                       # Number of TLB faults due to domain restrictions
system.cpu00.itb.perms_faults                       0                       # Number of TLB faults due to permissions restrictions
system.cpu00.itb.read_accesses                      0                       # DTB read accesses
system.cpu00.itb.write_accesses                     0                       # DTB write accesses
system.cpu00.itb.inst_accesses                      0                       # ITB inst accesses
system.cpu00.itb.hits                               0                       # DTB hits
system.cpu00.itb.misses                             0                       # DTB misses
system.cpu00.itb.accesses                           0                       # DTB accesses
system.cpu00.workload.num_syscalls                327                       # Number of system calls
system.cpu00.numCycles                         384985                       # number of cpu cycles simulated
system.cpu00.numWorkItemsStarted                    0                       # number of work items this cpu started
system.cpu00.numWorkItemsCompleted                  0                       # number of work items this cpu completed
system.cpu00.fetch.icacheStallCycles            65765                       # Number of cycles fetch is stalled on an Icache miss
system.cpu00.fetch.Insts                       444525                       # Number of instructions fetch has processed
system.cpu00.fetch.Branches                     40513                       # Number of branches that fetch encountered
system.cpu00.fetch.predictedBranches            35096                       # Number of branches that fetch has predicted taken
system.cpu00.fetch.Cycles                      276576                       # Number of cycles fetch has run and was not squashing or blocked
system.cpu00.fetch.SquashCycles                  2815                       # Number of cycles fetch has spent squashing
system.cpu00.fetch.PendingTrapStallCycles            4                       # Number of stall cycles due to pending traps
system.cpu00.fetch.CacheLines                   51932                       # Number of cache lines fetched
system.cpu00.fetch.IcacheSquashes                 674                       # Number of outstanding Icache misses that were squashed
system.cpu00.fetch.rateDist::samples           343752                       # Number of instructions fetched each cycle (Total)
system.cpu00.fetch.rateDist::mean            1.389996                       # Number of instructions fetched each cycle (Total)
system.cpu00.fetch.rateDist::stdev           2.654838                       # Number of instructions fetched each cycle (Total)
system.cpu00.fetch.rateDist::underflows             0      0.00%      0.00% # Number of instructions fetched each cycle (Total)
system.cpu00.fetch.rateDist::0                 254846     74.14%     74.14% # Number of instructions fetched each cycle (Total)
system.cpu00.fetch.rateDist::1                   7595      2.21%     76.35% # Number of instructions fetched each cycle (Total)
system.cpu00.fetch.rateDist::2                   8751      2.55%     78.89% # Number of instructions fetched each cycle (Total)
system.cpu00.fetch.rateDist::3                   6433      1.87%     80.76% # Number of instructions fetched each cycle (Total)
system.cpu00.fetch.rateDist::4                  11656      3.39%     84.15% # Number of instructions fetched each cycle (Total)
system.cpu00.fetch.rateDist::5                   4265      1.24%     85.39% # Number of instructions fetched each cycle (Total)
system.cpu00.fetch.rateDist::6                  11429      3.32%     88.72% # Number of instructions fetched each cycle (Total)
system.cpu00.fetch.rateDist::7                  13321      3.88%     92.59% # Number of instructions fetched each cycle (Total)
system.cpu00.fetch.rateDist::8                  25456      7.41%    100.00% # Number of instructions fetched each cycle (Total)
system.cpu00.fetch.rateDist::overflows              0      0.00%    100.00% # Number of instructions fetched each cycle (Total)
system.cpu00.fetch.rateDist::min_value              0                       # Number of instructions fetched each cycle (Total)
system.cpu00.fetch.rateDist::max_value              8                       # Number of instructions fetched each cycle (Total)
system.cpu00.fetch.rateDist::total             343752                       # Number of instructions fetched each cycle (Total)
system.cpu00.fetch.branchRate                0.105233                       # Number of branch fetches per cycle
system.cpu00.fetch.rate                      1.154655                       # Number of inst fetches per cycle
system.cpu00.decode.IdleCycles                  34038                       # Number of cycles decode is idle
system.cpu00.decode.BlockedCycles              248219                       # Number of cycles decode is blocked
system.cpu00.decode.RunCycles                   17247                       # Number of cycles decode is running
system.cpu00.decode.UnblockCycles               43150                       # Number of cycles decode is unblocking
system.cpu00.decode.SquashCycles                 1098                       # Number of cycles decode is squashing
system.cpu00.decode.BranchResolved               1120                       # Number of times decode resolved a branch
system.cpu00.decode.BranchMispred                 320                       # Number of times decode detected a branch misprediction
system.cpu00.decode.DecodedInsts               454674                       # Number of instructions handled by decode
system.cpu00.decode.SquashedInsts                1185                       # Number of squashed instructions handled by decode
system.cpu00.rename.SquashCycles                 1098                       # Number of cycles rename is squashing
system.cpu00.rename.IdleCycles                  48518                       # Number of cycles rename is idle
system.cpu00.rename.BlockCycles                 12299                       # Number of cycles rename is blocking
system.cpu00.rename.serializeStallCycles        14589                       # count of cycles rename stalled for serializing inst
system.cpu00.rename.RunCycles                   45619                       # Number of cycles rename is running
system.cpu00.rename.UnblockCycles              221629                       # Number of cycles rename is unblocking
system.cpu00.rename.RenamedInsts               451461                       # Number of instructions processed by rename
system.cpu00.rename.ROBFullEvents                   4                       # Number of times rename has blocked due to ROB full
system.cpu00.rename.IQFullEvents                94702                       # Number of times rename has blocked due to IQ full
system.cpu00.rename.LQFullEvents                 2180                       # Number of times rename has blocked due to LQ full
system.cpu00.rename.SQFullEvents               119827                       # Number of times rename has blocked due to SQ full
system.cpu00.rename.RenamedOperands            544505                       # Number of destination operands rename has renamed
system.cpu00.rename.RenameLookups             2247703                       # Number of register rename lookups that rename has made
system.cpu00.rename.int_rename_lookups         731616                       # Number of integer rename lookups
system.cpu00.rename.fp_rename_lookups              22                       # Number of floating rename lookups
system.cpu00.rename.CommittedMaps              495347                       # Number of HB maps that are committed
system.cpu00.rename.UndoneMaps                  49158                       # Number of HB maps that are undone due to squashing
system.cpu00.rename.serializingInsts              165                       # count of serializing insts renamed
system.cpu00.rename.tempSerializingInsts          165                       # count of temporary serializing insts renamed
system.cpu00.rename.skidInsts                  213219                       # count of insts added to the skid buffer
system.cpu00.memDep0.insertedLoads              77657                       # Number of loads inserted to the mem dependence unit.
system.cpu00.memDep0.insertedStores             49445                       # Number of stores inserted to the mem dependence unit.
system.cpu00.memDep0.conflictingLoads            1035                       # Number of conflicting loads.
system.cpu00.memDep0.conflictingStores            422                       # Number of conflicting stores.
system.cpu00.iq.iqInstsAdded                   447233                       # Number of instructions added to the IQ (excludes non-spec)
system.cpu00.iq.iqNonSpecInstsAdded               305                       # Number of non-speculative instructions added to the IQ
system.cpu00.iq.iqInstsIssued                  414972                       # Number of instructions issued
system.cpu00.iq.iqSquashedInstsIssued            2748                       # Number of squashed instructions issued
system.cpu00.iq.iqSquashedInstsExamined         38394                       # Number of squashed instructions iterated over during squash; mainly for profiling
system.cpu00.iq.iqSquashedOperandsExamined       161869                       # Number of squashed operands that are examined and possibly removed from graph
system.cpu00.iq.iqSquashedNonSpecRemoved           86                       # Number of squashed non-spec instructions that were removed
system.cpu00.iq.issued_per_cycle::samples       343752                       # Number of insts issued each cycle
system.cpu00.iq.issued_per_cycle::mean       1.207184                       # Number of insts issued each cycle
system.cpu00.iq.issued_per_cycle::stdev      0.965179                       # Number of insts issued each cycle
system.cpu00.iq.issued_per_cycle::underflows            0      0.00%      0.00% # Number of insts issued each cycle
system.cpu00.iq.issued_per_cycle::0            131882     38.37%     38.37% # Number of insts issued each cycle
system.cpu00.iq.issued_per_cycle::1              8768      2.55%     40.92% # Number of insts issued each cycle
system.cpu00.iq.issued_per_cycle::2            203102     59.08%    100.00% # Number of insts issued each cycle
system.cpu00.iq.issued_per_cycle::overflows            0      0.00%    100.00% # Number of insts issued each cycle
system.cpu00.iq.issued_per_cycle::min_value            0                       # Number of insts issued each cycle
system.cpu00.iq.issued_per_cycle::max_value            2                       # Number of insts issued each cycle
system.cpu00.iq.issued_per_cycle::total        343752                       # Number of insts issued each cycle
system.cpu00.iq.fu_full::No_OpClass                 0                       # attempts to use FU when none available
system.cpu00.iq.fu_full::IntAlu                     0                       # attempts to use FU when none available
system.cpu00.iq.fu_full::IntMult                    0                       # attempts to use FU when none available
system.cpu00.iq.fu_full::IntDiv                     0                       # attempts to use FU when none available
system.cpu00.iq.fu_full::FloatAdd                   0                       # attempts to use FU when none available
system.cpu00.iq.fu_full::FloatCmp                   0                       # attempts to use FU when none available
system.cpu00.iq.fu_full::FloatCvt                   0                       # attempts to use FU when none available
system.cpu00.iq.fu_full::FloatMult                  0                       # attempts to use FU when none available
system.cpu00.iq.fu_full::FloatDiv                   0                       # attempts to use FU when none available
system.cpu00.iq.fu_full::FloatSqrt                  0                       # attempts to use FU when none available
system.cpu00.iq.fu_full::SimdAdd                    0                       # attempts to use FU when none available
system.cpu00.iq.fu_full::SimdAddAcc                 0                       # attempts to use FU when none available
system.cpu00.iq.fu_full::SimdAlu                    0                       # attempts to use FU when none available
system.cpu00.iq.fu_full::SimdCmp                    0                       # attempts to use FU when none available
system.cpu00.iq.fu_full::SimdCvt                    0                       # attempts to use FU when none available
system.cpu00.iq.fu_full::SimdMisc                   0                       # attempts to use FU when none available
system.cpu00.iq.fu_full::SimdMult                   0                       # attempts to use FU when none available
system.cpu00.iq.fu_full::SimdMultAcc                0                       # attempts to use FU when none available
system.cpu00.iq.fu_full::SimdShift                  0                       # attempts to use FU when none available
system.cpu00.iq.fu_full::SimdShiftAcc               0                       # attempts to use FU when none available
system.cpu00.iq.fu_full::SimdSqrt                   0                       # attempts to use FU when none available
system.cpu00.iq.fu_full::SimdFloatAdd               0                       # attempts to use FU when none available
system.cpu00.iq.fu_full::SimdFloatAlu               0                       # attempts to use FU when none available
system.cpu00.iq.fu_full::SimdFloatCmp               0                       # attempts to use FU when none available
system.cpu00.iq.fu_full::SimdFloatCvt               0                       # attempts to use FU when none available
system.cpu00.iq.fu_full::SimdFloatDiv               0                       # attempts to use FU when none available
system.cpu00.iq.fu_full::SimdFloatMisc              0                       # attempts to use FU when none available
system.cpu00.iq.fu_full::SimdFloatMult              0                       # attempts to use FU when none available
system.cpu00.iq.fu_full::SimdFloatMultAcc            0                       # attempts to use FU when none available
system.cpu00.iq.fu_full::SimdFloatSqrt              0                       # attempts to use FU when none available
system.cpu00.iq.fu_full::MemRead                    0                       # attempts to use FU when none available
system.cpu00.iq.fu_full::MemWrite                   0                       # attempts to use FU when none available
system.cpu00.iq.fu_full::IprAccess                  0                       # attempts to use FU when none available
system.cpu00.iq.fu_full::InstPrefetch               0                       # attempts to use FU when none available
system.cpu00.iq.FU_type_0::No_OpClass               0      0.00%      0.00% # Type of FU issued
system.cpu00.iq.FU_type_0::IntAlu              238526     57.48%     57.48% # Type of FU issued
system.cpu00.iq.FU_type_0::IntMult              57519     13.86%     71.34% # Type of FU issued
system.cpu00.iq.FU_type_0::IntDiv                   0      0.00%     71.34% # Type of FU issued
system.cpu00.iq.FU_type_0::FloatAdd                 0      0.00%     71.34% # Type of FU issued
system.cpu00.iq.FU_type_0::FloatCmp                 0      0.00%     71.34% # Type of FU issued
system.cpu00.iq.FU_type_0::FloatCvt                 0      0.00%     71.34% # Type of FU issued
system.cpu00.iq.FU_type_0::FloatMult                0      0.00%     71.34% # Type of FU issued
system.cpu00.iq.FU_type_0::FloatDiv                 0      0.00%     71.34% # Type of FU issued
system.cpu00.iq.FU_type_0::FloatSqrt                0      0.00%     71.34% # Type of FU issued
system.cpu00.iq.FU_type_0::SimdAdd                  0      0.00%     71.34% # Type of FU issued
system.cpu00.iq.FU_type_0::SimdAddAcc               0      0.00%     71.34% # Type of FU issued
system.cpu00.iq.FU_type_0::SimdAlu                  0      0.00%     71.34% # Type of FU issued
system.cpu00.iq.FU_type_0::SimdCmp                  0      0.00%     71.34% # Type of FU issued
system.cpu00.iq.FU_type_0::SimdCvt                  0      0.00%     71.34% # Type of FU issued
system.cpu00.iq.FU_type_0::SimdMisc                 0      0.00%     71.34% # Type of FU issued
system.cpu00.iq.FU_type_0::SimdMult                 0      0.00%     71.34% # Type of FU issued
system.cpu00.iq.FU_type_0::SimdMultAcc              0      0.00%     71.34% # Type of FU issued
system.cpu00.iq.FU_type_0::SimdShift                0      0.00%     71.34% # Type of FU issued
system.cpu00.iq.FU_type_0::SimdShiftAcc             0      0.00%     71.34% # Type of FU issued
system.cpu00.iq.FU_type_0::SimdSqrt                 0      0.00%     71.34% # Type of FU issued
system.cpu00.iq.FU_type_0::SimdFloatAdd             0      0.00%     71.34% # Type of FU issued
system.cpu00.iq.FU_type_0::SimdFloatAlu             0      0.00%     71.34% # Type of FU issued
system.cpu00.iq.FU_type_0::SimdFloatCmp             0      0.00%     71.34% # Type of FU issued
system.cpu00.iq.FU_type_0::SimdFloatCvt             0      0.00%     71.34% # Type of FU issued
system.cpu00.iq.FU_type_0::SimdFloatDiv             0      0.00%     71.34% # Type of FU issued
system.cpu00.iq.FU_type_0::SimdFloatMisc            3      0.00%     71.34% # Type of FU issued
system.cpu00.iq.FU_type_0::SimdFloatMult            0      0.00%     71.34% # Type of FU issued
system.cpu00.iq.FU_type_0::SimdFloatMultAcc            0      0.00%     71.34% # Type of FU issued
system.cpu00.iq.FU_type_0::SimdFloatSqrt            0      0.00%     71.34% # Type of FU issued
system.cpu00.iq.FU_type_0::MemRead              72366     17.44%     88.78% # Type of FU issued
system.cpu00.iq.FU_type_0::MemWrite             46558     11.22%    100.00% # Type of FU issued
system.cpu00.iq.FU_type_0::IprAccess                0      0.00%    100.00% # Type of FU issued
system.cpu00.iq.FU_type_0::InstPrefetch             0      0.00%    100.00% # Type of FU issued
system.cpu00.iq.FU_type_0::total               414972                       # Type of FU issued
system.cpu00.iq.rate                         1.077891                       # Inst issue rate
system.cpu00.iq.fu_busy_cnt                         0                       # FU busy when requested
system.cpu00.iq.fu_busy_rate                        0                       # FU busy rate (busy events/executed inst)
system.cpu00.iq.int_inst_queue_reads          1176388                       # Number of integer instruction queue reads
system.cpu00.iq.int_inst_queue_writes          485940                       # Number of integer instruction queue writes
system.cpu00.iq.int_inst_queue_wakeup_accesses       413314                       # Number of integer instruction queue wakeup accesses
system.cpu00.iq.fp_inst_queue_reads                56                       # Number of floating instruction queue reads
system.cpu00.iq.fp_inst_queue_writes               28                       # Number of floating instruction queue writes
system.cpu00.iq.fp_inst_queue_wakeup_accesses           28                       # Number of floating instruction queue wakeup accesses
system.cpu00.iq.int_alu_accesses               414944                       # Number of integer alu accesses
system.cpu00.iq.fp_alu_accesses                    28                       # Number of floating point alu accesses
system.cpu00.iew.lsq.thread0.forwLoads             86                       # Number of loads that had data forwarded from stores
system.cpu00.iew.lsq.thread0.invAddrLoads            0                       # Number of loads ignored due to an invalid address
system.cpu00.iew.lsq.thread0.squashedLoads         7209                       # Number of loads squashed
system.cpu00.iew.lsq.thread0.ignoredResponses            4                       # Number of memory responses ignored because the instruction is squashed
system.cpu00.iew.lsq.thread0.memOrderViolation           36                       # Number of memory ordering violations
system.cpu00.iew.lsq.thread0.squashedStores         3243                       # Number of stores squashed
system.cpu00.iew.lsq.thread0.invAddrSwpfs            0                       # Number of software prefetches ignored due to an invalid address
system.cpu00.iew.lsq.thread0.blockedLoads            0                       # Number of blocked loads due to partial load-store forwarding
system.cpu00.iew.lsq.thread0.rescheduledLoads           40                       # Number of loads that were rescheduled
system.cpu00.iew.lsq.thread0.cacheBlocked           75                       # Number of times an access to memory failed due to the cache being blocked
system.cpu00.iew.iewIdleCycles                      0                       # Number of cycles IEW is idle
system.cpu00.iew.iewSquashCycles                 1098                       # Number of cycles IEW is squashing
system.cpu00.iew.iewBlockCycles                  5197                       # Number of cycles IEW is blocking
system.cpu00.iew.iewUnblockCycles                 492                       # Number of cycles IEW is unblocking
system.cpu00.iew.iewDispatchedInsts            447545                       # Number of instructions dispatched to IQ
system.cpu00.iew.iewDispSquashedInsts              99                       # Number of squashed instructions skipped by dispatch
system.cpu00.iew.iewDispLoadInsts               77657                       # Number of dispatched load instructions
system.cpu00.iew.iewDispStoreInsts              49445                       # Number of dispatched store instructions
system.cpu00.iew.iewDispNonSpecInsts              154                       # Number of dispatched non-speculative instructions
system.cpu00.iew.iewIQFullEvents                   21                       # Number of times the IQ has become full, causing a stall
system.cpu00.iew.iewLSQFullEvents                 466                       # Number of times the LSQ has become full, causing a stall
system.cpu00.iew.memOrderViolationEvents           36                       # Number of memory order violations
[...]
system.tol2bus.pkt_count_system.cpu06.dcache.mem_side::system.l2.cpu_side         1863                       # Packet count per connected master and slave (bytes)
system.tol2bus.pkt_count_system.cpu07.icache.mem_side::system.l2.cpu_side          106                       # Packet count per connected master and slave (bytes)
system.tol2bus.pkt_count_system.cpu07.dcache.mem_side::system.l2.cpu_side         1866                       # Packet count per connected master and slave (bytes)
system.tol2bus.pkt_count_system.cpu08.icache.mem_side::system.l2.cpu_side          108                       # Packet count per connected master and slave (bytes)
system.tol2bus.pkt_count_system.cpu08.dcache.mem_side::system.l2.cpu_side         1901                       # Packet count per connected master and slave (bytes)
system.tol2bus.pkt_count_system.cpu09.icache.mem_side::system.l2.cpu_side          110                       # Packet count per connected master and slave (bytes)
system.tol2bus.pkt_count_system.cpu09.dcache.mem_side::system.l2.cpu_side         1842                       # Packet count per connected master and slave (bytes)
system.tol2bus.pkt_count_system.cpu10.icache.mem_side::system.l2.cpu_side          112                       # Packet count per connected master and slave (bytes)
system.tol2bus.pkt_count_system.cpu10.dcache.mem_side::system.l2.cpu_side         2007                       # Packet count per connected master and slave (bytes)
system.tol2bus.pkt_count_system.cpu11.icache.mem_side::system.l2.cpu_side          112                       # Packet count per connected master and slave (bytes)
system.tol2bus.pkt_count_system.cpu11.dcache.mem_side::system.l2.cpu_side         1971                       # Packet count per connected master and slave (bytes)
system.tol2bus.pkt_count_system.cpu12.icache.mem_side::system.l2.cpu_side          114                       # Packet count per connected master and slave (bytes)
system.tol2bus.pkt_count_system.cpu12.dcache.mem_side::system.l2.cpu_side         1812                       # Packet count per connected master and slave (bytes)
system.tol2bus.pkt_count_system.cpu13.icache.mem_side::system.l2.cpu_side          120                       # Packet count per connected master and slave (bytes)
system.tol2bus.pkt_count_system.cpu13.dcache.mem_side::system.l2.cpu_side         1820                       # Packet count per connected master and slave (bytes)
system.tol2bus.pkt_count_system.cpu14.icache.mem_side::system.l2.cpu_side          108                       # Packet count per connected master and slave (bytes)
system.tol2bus.pkt_count_system.cpu14.dcache.mem_side::system.l2.cpu_side         1829                       # Packet count per connected master and slave (bytes)
system.tol2bus.pkt_count_system.cpu15.icache.mem_side::system.l2.cpu_side          102                       # Packet count per connected master and slave (bytes)
system.tol2bus.pkt_count_system.cpu15.dcache.mem_side::system.l2.cpu_side         1846                       # Packet count per connected master and slave (bytes)
system.tol2bus.pkt_count::total                 40606                       # Packet count per connected master and slave (bytes)
system.tol2bus.pkt_size_system.cpu00.icache.mem_side::system.l2.cpu_side        39104                       # Cumulative packet size per connected master and slave (bytes)
system.tol2bus.pkt_size_system.cpu00.dcache.mem_side::system.l2.cpu_side       376640                       # Cumulative packet size per connected master and slave (bytes)
system.tol2bus.pkt_size_system.cpu01.icache.mem_side::system.l2.cpu_side         3328                       # Cumulative packet size per connected master and slave (bytes)
system.tol2bus.pkt_size_system.cpu01.dcache.mem_side::system.l2.cpu_side        44928                       # Cumulative packet size per connected master and slave (bytes)
system.tol2bus.pkt_size_system.cpu02.icache.mem_side::system.l2.cpu_side         3328                       # Cumulative packet size per connected master and slave (bytes)
system.tol2bus.pkt_size_system.cpu02.dcache.mem_side::system.l2.cpu_side        38144                       # Cumulative packet size per connected master and slave (bytes)
system.tol2bus.pkt_size_system.cpu03.icache.mem_side::system.l2.cpu_side         3392                       # Cumulative packet size per connected master and slave (bytes)
system.tol2bus.pkt_size_system.cpu03.dcache.mem_side::system.l2.cpu_side        36288                       # Cumulative packet size per connected master and slave (bytes)
system.tol2bus.pkt_size_system.cpu04.icache.mem_side::system.l2.cpu_side         3392                       # Cumulative packet size per connected master and slave (bytes)
system.tol2bus.pkt_size_system.cpu04.dcache.mem_side::system.l2.cpu_side        33920                       # Cumulative packet size per connected master and slave (bytes)
system.tol2bus.pkt_size_system.cpu05.icache.mem_side::system.l2.cpu_side         3456                       # Cumulative packet size per connected master and slave (bytes)
system.tol2bus.pkt_size_system.cpu05.dcache.mem_side::system.l2.cpu_side        35456                       # Cumulative packet size per connected master and slave (bytes)
system.tol2bus.pkt_size_system.cpu06.icache.mem_side::system.l2.cpu_side         3456                       # Cumulative packet size per connected master and slave (bytes)
system.tol2bus.pkt_size_system.cpu06.dcache.mem_side::system.l2.cpu_side        36352                       # Cumulative packet size per connected master and slave (bytes)
system.tol2bus.pkt_size_system.cpu07.icache.mem_side::system.l2.cpu_side         3392                       # Cumulative packet size per connected master and slave (bytes)
system.tol2bus.pkt_size_system.cpu07.dcache.mem_side::system.l2.cpu_side        37504                       # Cumulative packet size per connected master and slave (bytes)
system.tol2bus.pkt_size_system.cpu08.icache.mem_side::system.l2.cpu_side         3456                       # Cumulative packet size per connected master and slave (bytes)
system.tol2bus.pkt_size_system.cpu08.dcache.mem_side::system.l2.cpu_side        39616                       # Cumulative packet size per connected master and slave (bytes)
system.tol2bus.pkt_size_system.cpu09.icache.mem_side::system.l2.cpu_side         3520                       # Cumulative packet size per connected master and slave (bytes)
system.tol2bus.pkt_size_system.cpu09.dcache.mem_side::system.l2.cpu_side        36288                       # Cumulative packet size per connected master and slave (bytes)
system.tol2bus.pkt_size_system.cpu10.icache.mem_side::system.l2.cpu_side         3584                       # Cumulative packet size per connected master and slave (bytes)
system.tol2bus.pkt_size_system.cpu10.dcache.mem_side::system.l2.cpu_side        45376                       # Cumulative packet size per connected master and slave (bytes)
system.tol2bus.pkt_size_system.cpu11.icache.mem_side::system.l2.cpu_side         3584                       # Cumulative packet size per connected master and slave (bytes)
system.tol2bus.pkt_size_system.cpu11.dcache.mem_side::system.l2.cpu_side        44416                       # Cumulative packet size per connected master and slave (bytes)
system.tol2bus.pkt_size_system.cpu12.icache.mem_side::system.l2.cpu_side         3648                       # Cumulative packet size per connected master and slave (bytes)
system.tol2bus.pkt_size_system.cpu12.dcache.mem_side::system.l2.cpu_side        34304                       # Cumulative packet size per connected master and slave (bytes)
system.tol2bus.pkt_size_system.cpu13.icache.mem_side::system.l2.cpu_side         3840                       # Cumulative packet size per connected master and slave (bytes)
system.tol2bus.pkt_size_system.cpu13.dcache.mem_side::system.l2.cpu_side        35392                       # Cumulative packet size per connected master and slave (bytes)
system.tol2bus.pkt_size_system.cpu14.icache.mem_side::system.l2.cpu_side         3456                       # Cumulative packet size per connected master and slave (bytes)
system.tol2bus.pkt_size_system.cpu14.dcache.mem_side::system.l2.cpu_side        35328                       # Cumulative packet size per connected master and slave (bytes)
system.tol2bus.pkt_size_system.cpu15.icache.mem_side::system.l2.cpu_side         3264                       # Cumulative packet size per connected master and slave (bytes)
system.tol2bus.pkt_size_system.cpu15.dcache.mem_side::system.l2.cpu_side        35904                       # Cumulative packet size per connected master and slave (bytes)
system.tol2bus.pkt_size::total                1037056                       # Cumulative packet size per connected master and slave (bytes)
system.tol2bus.snoops                           14686                       # Total snoops (count)
system.tol2bus.snoop_fanout::samples            30920                       # Request fanout histogram
system.tol2bus.snoop_fanout::mean                  31                       # Request fanout histogram
system.tol2bus.snoop_fanout::stdev                  0                       # Request fanout histogram
system.tol2bus.snoop_fanout::underflows             0      0.00%      0.00% # Request fanout histogram
system.tol2bus.snoop_fanout::0                      0      0.00%      0.00% # Request fanout histogram
system.tol2bus.snoop_fanout::1                      0      0.00%      0.00% # Request fanout histogram
system.tol2bus.snoop_fanout::2                      0      0.00%      0.00% # Request fanout histogram
system.tol2bus.snoop_fanout::3                      0      0.00%      0.00% # Request fanout histogram
system.tol2bus.snoop_fanout::4                      0      0.00%      0.00% # Request fanout histogram
system.tol2bus.snoop_fanout::5                      0      0.00%      0.00% # Request fanout histogram
system.tol2bus.snoop_fanout::6                      0      0.00%      0.00% # Request fanout histogram
system.tol2bus.snoop_fanout::7                      0      0.00%      0.00% # Request fanout histogram
system.tol2bus.snoop_fanout::8                      0      0.00%      0.00% # Request fanout histogram
system.tol2bus.snoop_fanout::9                      0      0.00%      0.00% # Request fanout histogram
system.tol2bus.snoop_fanout::10                     0      0.00%      0.00% # Request fanout histogram
system.tol2bus.snoop_fanout::11                     0      0.00%      0.00% # Request fanout histogram
system.tol2bus.snoop_fanout::12                     0      0.00%      0.00% # Request fanout histogram
system.tol2bus.snoop_fanout::13                     0      0.00%      0.00% # Request fanout histogram
system.tol2bus.snoop_fanout::14                     0      0.00%      0.00% # Request fanout histogram
system.tol2bus.snoop_fanout::15                     0      0.00%      0.00% # Request fanout histogram
system.tol2bus.snoop_fanout::16                     0      0.00%      0.00% # Request fanout histogram
system.tol2bus.snoop_fanout::17                     0      0.00%      0.00% # Request fanout histogram
system.tol2bus.snoop_fanout::18                     0      0.00%      0.00% # Request fanout histogram
system.tol2bus.snoop_fanout::19                     0      0.00%      0.00% # Request fanout histogram
system.tol2bus.snoop_fanout::20                     0      0.00%      0.00% # Request fanout histogram
system.tol2bus.snoop_fanout::21                     0      0.00%      0.00% # Request fanout histogram
system.tol2bus.snoop_fanout::22                     0      0.00%      0.00% # Request fanout histogram
system.tol2bus.snoop_fanout::23                     0      0.00%      0.00% # Request fanout histogram
system.tol2bus.snoop_fanout::24                     0      0.00%      0.00% # Request fanout histogram
system.tol2bus.snoop_fanout::25                     0      0.00%      0.00% # Request fanout histogram
system.tol2bus.snoop_fanout::26                     0      0.00%      0.00% # Request fanout histogram
system.tol2bus.snoop_fanout::27                     0      0.00%      0.00% # Request fanout histogram
system.tol2bus.snoop_fanout::28                     0      0.00%      0.00% # Request fanout histogram
system.tol2bus.snoop_fanout::29                     0      0.00%      0.00% # Request fanout histogram
system.tol2bus.snoop_fanout::30                     0      0.00%      0.00% # Request fanout histogram
system.tol2bus.snoop_fanout::31                 30920    100.00%    100.00% # Request fanout histogram
system.tol2bus.snoop_fanout::32                     0      0.00%    100.00% # Request fanout histogram
system.tol2bus.snoop_fanout::overflows              0      0.00%    100.00% # Request fanout histogram
system.tol2bus.snoop_fanout::min_value             31                       # Request fanout histogram
system.tol2bus.snoop_fanout::max_value             31                       # Request fanout histogram
system.tol2bus.snoop_fanout::total              30920                       # Request fanout histogram
system.tol2bus.reqLayer0.occupancy           21993990                       # Layer occupancy (ticks)
system.tol2bus.reqLayer0.utilization             11.4                       # Layer utilization (%)
system.tol2bus.respLayer0.occupancy           1013461                       # Layer occupancy (ticks)
system.tol2bus.respLayer0.utilization             0.5                       # Layer utilization (%)
system.tol2bus.respLayer1.occupancy           5813001                       # Layer occupancy (ticks)
system.tol2bus.respLayer1.utilization             3.0                       # Layer utilization (%)
system.tol2bus.respLayer4.occupancy             86697                       # Layer occupancy (ticks)
system.tol2bus.respLayer4.utilization             0.0                       # Layer utilization (%)
system.tol2bus.respLayer5.occupancy           1982478                       # Layer occupancy (ticks)
system.tol2bus.respLayer5.utilization             1.0                       # Layer utilization (%)
system.tol2bus.respLayer8.occupancy             82707                       # Layer occupancy (ticks)
system.tol2bus.respLayer8.utilization             0.0                       # Layer utilization (%)
system.tol2bus.respLayer9.occupancy           1989459                       # Layer occupancy (ticks)
system.tol2bus.respLayer9.utilization             1.0                       # Layer utilization (%)
system.tol2bus.respLayer12.occupancy            88690                       # Layer occupancy (ticks)
system.tol2bus.respLayer12.utilization            0.0                       # Layer utilization (%)
system.tol2bus.respLayer13.occupancy          1927988                       # Layer occupancy (ticks)
system.tol2bus.respLayer13.utilization            1.0                       # Layer utilization (%)
system.tol2bus.respLayer16.occupancy            83962                       # Layer occupancy (ticks)
system.tol2bus.respLayer16.utilization            0.0                       # Layer utilization (%)
system.tol2bus.respLayer17.occupancy          1953725                       # Layer occupancy (ticks)
system.tol2bus.respLayer17.utilization            1.0                       # Layer utilization (%)
system.tol2bus.respLayer20.occupancy            83467                       # Layer occupancy (ticks)
system.tol2bus.respLayer20.utilization            0.0                       # Layer utilization (%)
system.tol2bus.respLayer21.occupancy          1944227                       # Layer occupancy (ticks)
system.tol2bus.respLayer21.utilization            1.0                       # Layer utilization (%)
system.tol2bus.respLayer24.occupancy            83959                       # Layer occupancy (ticks)
system.tol2bus.respLayer24.utilization            0.0                       # Layer utilization (%)
system.tol2bus.respLayer25.occupancy          1944732                       # Layer occupancy (ticks)
system.tol2bus.respLayer25.utilization            1.0                       # Layer utilization (%)
system.tol2bus.respLayer28.occupancy            82955                       # Layer occupancy (ticks)
system.tol2bus.respLayer28.utilization            0.0                       # Layer utilization (%)
system.tol2bus.respLayer29.occupancy          1920736                       # Layer occupancy (ticks)
system.tol2bus.respLayer29.utilization            1.0                       # Layer utilization (%)
system.tol2bus.respLayer32.occupancy            84459                       # Layer occupancy (ticks)
system.tol2bus.respLayer32.utilization            0.0                       # Layer utilization (%)
system.tol2bus.respLayer33.occupancy          1927476                       # Layer occupancy (ticks)
system.tol2bus.respLayer33.utilization            1.0                       # Layer utilization (%)
system.tol2bus.respLayer36.occupancy            86457                       # Layer occupancy (ticks)
system.tol2bus.respLayer36.utilization            0.0                       # Layer utilization (%)
system.tol2bus.respLayer37.occupancy          1912491                       # Layer occupancy (ticks)
system.tol2bus.respLayer37.utilization            1.0                       # Layer utilization (%)
system.tol2bus.respLayer40.occupancy            86491                       # Layer occupancy (ticks)
system.tol2bus.respLayer40.utilization            0.0                       # Layer utilization (%)
system.tol2bus.respLayer41.occupancy          1946977                       # Layer occupancy (ticks)
system.tol2bus.respLayer41.utilization            1.0                       # Layer utilization (%)
system.tol2bus.respLayer44.occupancy            85498                       # Layer occupancy (ticks)
system.tol2bus.respLayer44.utilization            0.0                       # Layer utilization (%)
system.tol2bus.respLayer45.occupancy          1918217                       # Layer occupancy (ticks)
system.tol2bus.respLayer45.utilization            1.0                       # Layer utilization (%)
system.tol2bus.respLayer48.occupancy            90180                       # Layer occupancy (ticks)
system.tol2bus.respLayer48.utilization            0.0                       # Layer utilization (%)
system.tol2bus.respLayer49.occupancy          1917973                       # Layer occupancy (ticks)
system.tol2bus.respLayer49.utilization            1.0                       # Layer utilization (%)
system.tol2bus.respLayer52.occupancy            93934                       # Layer occupancy (ticks)
system.tol2bus.respLayer52.utilization            0.0                       # Layer utilization (%)
system.tol2bus.respLayer53.occupancy          1899983                       # Layer occupancy (ticks)
system.tol2bus.respLayer53.utilization            1.0                       # Layer utilization (%)
system.tol2bus.respLayer56.occupancy            83238                       # Layer occupancy (ticks)
system.tol2bus.respLayer56.utilization            0.0                       # Layer utilization (%)
system.tol2bus.respLayer57.occupancy          1914977                       # Layer occupancy (ticks)
system.tol2bus.respLayer57.utilization            1.0                       # Layer utilization (%)
system.tol2bus.respLayer60.occupancy            77002                       # Layer occupancy (ticks)
system.tol2bus.respLayer60.utilization            0.0                       # Layer utilization (%)
system.tol2bus.respLayer61.occupancy          1925246                       # Layer occupancy (ticks)
system.tol2bus.respLayer61.utilization            1.0                       # Layer utilization (%)

---------- End Simulation Statistics   ----------
