
---------- Begin Simulation Statistics ----------
sim_seconds                                  0.000384                       # Number of seconds simulated
sim_ticks                                   384282000                       # Number of ticks simulated
final_tick                                  384282000                       # Number of ticks from beginning of simulation (restored from checkpoints and never reset)
sim_freq                                 1000000000000                       # Frequency of simulated ticks
host_inst_rate                                 203456                       # Simulator instruction rate (inst/s)
host_op_rate                                   205081                       # Simulator op (including micro ops) rate (op/s)
host_tick_rate                               18852931                       # Simulator tick rate (ticks/s)
host_mem_usage                                 665892                       # Number of bytes of host memory used
host_seconds                                    20.38                       # Real time elapsed on the host
sim_insts                                     4147057                       # Number of instructions simulated
sim_ops                                       4180190                       # Number of ops (including micro ops) simulated
system.voltage_domain.voltage                       1                       # Voltage in Volts
system.clk_domain.clock                          1000                       # Clock period in ticks
system.mem_ctrls.bytes_read::cpu0.inst          35712                       # Number of bytes read from this memory
system.mem_ctrls.bytes_read::cpu0.data         114880                       # Number of bytes read from this memory
system.mem_ctrls.bytes_read::cpu1.inst           1024                       # Number of bytes read from this memory
system.mem_ctrls.bytes_read::cpu1.data            256                       # Number of bytes read from this memory
system.mem_ctrls.bytes_read::cpu2.inst            192                       # Number of bytes read from this memory
system.mem_ctrls.bytes_read::cpu2.data            320                       # Number of bytes read from this memory
system.mem_ctrls.bytes_read::cpu3.inst            320                       # Number of bytes read from this memory
system.mem_ctrls.bytes_read::cpu3.data            320                       # Number of bytes read from this memory
system.mem_ctrls.bytes_read::total             153024                       # Number of bytes read from this memory
system.mem_ctrls.bytes_inst_read::cpu0.inst        35712                       # Number of instructions bytes read from this memory
system.mem_ctrls.bytes_inst_read::cpu1.inst         1024                       # Number of instructions bytes read from this memory
system.mem_ctrls.bytes_inst_read::cpu2.inst          192                       # Number of instructions bytes read from this memory
system.mem_ctrls.bytes_inst_read::cpu3.inst          320                       # Number of instructions bytes read from this memory
system.mem_ctrls.bytes_inst_read::total         37248                       # Number of instructions bytes read from this memory
system.mem_ctrls.num_reads::cpu0.inst             558                       # Number of read requests responded to by this memory
system.mem_ctrls.num_reads::cpu0.data            1795                       # Number of read requests responded to by this memory
system.mem_ctrls.num_reads::cpu1.inst              16                       # Number of read requests responded to by this memory
system.mem_ctrls.num_reads::cpu1.data               4                       # Number of read requests responded to by this memory
system.mem_ctrls.num_reads::cpu2.inst               3                       # Number of read requests responded to by this memory
system.mem_ctrls.num_reads::cpu2.data               5                       # Number of read requests responded to by this memory
system.mem_ctrls.num_reads::cpu3.inst               5                       # Number of read requests responded to by this memory
system.mem_ctrls.num_reads::cpu3.data               5                       # Number of read requests responded to by this memory
system.mem_ctrls.num_reads::total                2391                       # Number of read requests responded to by this memory
system.mem_ctrls.bw_read::cpu0.inst          92931753                       # Total read bandwidth from this memory (bytes/s)
system.mem_ctrls.bw_read::cpu0.data         298947127                       # Total read bandwidth from this memory (bytes/s)
system.mem_ctrls.bw_read::cpu1.inst           2664710                       # Total read bandwidth from this memory (bytes/s)
system.mem_ctrls.bw_read::cpu1.data            666177                       # Total read bandwidth from this memory (bytes/s)
system.mem_ctrls.bw_read::cpu2.inst            499633                       # Total read bandwidth from this memory (bytes/s)
system.mem_ctrls.bw_read::cpu2.data            832722                       # Total read bandwidth from this memory (bytes/s)
system.mem_ctrls.bw_read::cpu3.inst            832722                       # Total read bandwidth from this memory (bytes/s)
system.mem_ctrls.bw_read::cpu3.data            832722                       # Total read bandwidth from this memory (bytes/s)
system.mem_ctrls.bw_read::total             398207566                       # Total read bandwidth from this memory (bytes/s)
system.mem_ctrls.bw_inst_read::cpu0.inst     92931753                       # Instruction read bandwidth from this memory (bytes/s)
system.mem_ctrls.bw_inst_read::cpu1.inst      2664710                       # Instruction read bandwidth from this memory (bytes/s)
system.mem_ctrls.bw_inst_read::cpu2.inst       499633                       # Instruction read bandwidth from this memory (bytes/s)
system.mem_ctrls.bw_inst_read::cpu3.inst       832722                       # Instruction read bandwidth from this memory (bytes/s)
system.mem_ctrls.bw_inst_read::total         96928818                       # Instruction read bandwidth from this memory (bytes/s)
system.mem_ctrls.bw_total::cpu0.inst         92931753                       # Total bandwidth to/from this memory (bytes/s)
system.mem_ctrls.bw_total::cpu0.data        298947127                       # Total bandwidth to/from this memory (bytes/s)
system.mem_ctrls.bw_total::cpu1.inst          2664710                       # Total bandwidth to/from this memory (bytes/s)
system.mem_ctrls.bw_total::cpu1.data           666177                       # Total bandwidth to/from this memory (bytes/s)
system.mem_ctrls.bw_total::cpu2.inst           499633                       # Total bandwidth to/from this memory (bytes/s)
system.mem_ctrls.bw_total::cpu2.data           832722                       # Total bandwidth to/from this memory (bytes/s)
system.mem_ctrls.bw_total::cpu3.inst           832722                       # Total bandwidth to/from this memory (bytes/s)
system.mem_ctrls.bw_total::cpu3.data           832722                       # Total bandwidth to/from this memory (bytes/s)
system.mem_ctrls.bw_total::total            398207566                       # Total bandwidth to/from this memory (bytes/s)
system.mem_ctrls.readReqs                        2391                       # Number of read requests accepted
system.mem_ctrls.writeReqs                          0                       # Number of write requests accepted
system.mem_ctrls.readBursts                      2391                       # Number of DRAM read bursts, including those serviced by the write queue
system.mem_ctrls.writeBursts                        0                       # Number of DRAM write bursts, including those merged in the write queue
system.mem_ctrls.bytesReadDRAM                 153024                       # Total number of bytes read from DRAM
system.mem_ctrls.bytesReadWrQ                       0                       # Total number of bytes read from write queue
system.mem_ctrls.bytesWritten                       0                       # Total number of bytes written to DRAM
system.mem_ctrls.bytesReadSys                  153024                       # Total read bytes from the system interface side
system.mem_ctrls.bytesWrittenSys                    0                       # Total written bytes from the system interface side
system.mem_ctrls.servicedByWrQ                      0                       # Number of DRAM read bursts serviced by the write queue
system.mem_ctrls.mergedWrBursts                     0                       # Number of DRAM write bursts merged with an existing one
system.mem_ctrls.neitherReadNorWriteReqs           13                       # Number of requests that are neither read nor write
system.mem_ctrls.perBankRdBursts::0               131                       # Per bank write bursts
system.mem_ctrls.perBankRdBursts::1               124                       # Per bank write bursts
system.mem_ctrls.perBankRdBursts::2               144                       # Per bank write bursts
system.mem_ctrls.perBankRdBursts::3               204                       # Per bank write bursts
system.mem_ctrls.perBankRdBursts::4               156                       # Per bank write bursts
system.mem_ctrls.perBankRdBursts::5               150                       # Per bank write bursts
system.mem_ctrls.perBankRdBursts::6               222                       # Per bank write bursts
system.mem_ctrls.perBankRdBursts::7               162                       # Per bank write bursts
system.mem_ctrls.perBankRdBursts::8               142                       # Per bank write bursts
system.mem_ctrls.perBankRdBursts::9               138                       # Per bank write bursts
system.mem_ctrls.perBankRdBursts::10              128                       # Per bank write bursts
system.mem_ctrls.perBankRdBursts::11              142                       # Per bank write bursts
system.mem_ctrls.perBankRdBursts::12              134                       # Per bank write bursts
system.mem_ctrls.perBankRdBursts::13              161                       # Per bank write bursts
system.mem_ctrls.perBankRdBursts::14              166                       # Per bank write bursts
system.mem_ctrls.perBankRdBursts::15               87                       # Per bank write bursts
system.mem_ctrls.perBankWrBursts::0                 0                       # Per bank write bursts
system.mem_ctrls.perBankWrBursts::1                 0                       # Per bank write bursts
system.mem_ctrls.perBankWrBursts::2                 0                       # Per bank write bursts
system.mem_ctrls.perBankWrBursts::3                 0                       # Per bank write bursts
system.mem_ctrls.perBankWrBursts::4                 0                       # Per bank write bursts
system.mem_ctrls.perBankWrBursts::5                 0                       # Per bank write bursts
system.mem_ctrls.perBankWrBursts::6                 0                       # Per bank write bursts
system.mem_ctrls.perBankWrBursts::7                 0                       # Per bank write bursts
system.mem_ctrls.perBankWrBursts::8                 0                       # Per bank write bursts
system.mem_ctrls.perBankWrBursts::9                 0                       # Per bank write bursts
system.mem_ctrls.perBankWrBursts::10                0                       # Per bank write bursts
system.mem_ctrls.perBankWrBursts::11                0                       # Per bank write bursts
system.mem_ctrls.perBankWrBursts::12                0                       # Per bank write bursts
system.mem_ctrls.perBankWrBursts::13                0                       # Per bank write bursts
system.mem_ctrls.perBankWrBursts::14                0                       # Per bank write bursts
system.mem_ctrls.perBankWrBursts::15                0                       # Per bank write bursts
system.mem_ctrls.numRdRetry                         0                       # Number of times read queue was full causing retry
system.mem_ctrls.numWrRetry                         0                       # Number of times write queue was full causing retry
system.mem_ctrls.totGap                     384238500                       # Total gap between requests
system.mem_ctrls.readPktSize::0                     0                       # Read request sizes (log2)
system.mem_ctrls.readPktSize::1                     0                       # Read request sizes (log2)
system.mem_ctrls.readPktSize::2                     0                       # Read request sizes (log2)
system.mem_ctrls.readPktSize::3                     0                       # Read request sizes (log2)
system.mem_ctrls.readPktSize::4                     0                       # Read request sizes (log2)
system.mem_ctrls.readPktSize::5                     0                       # Read request sizes (log2)
system.mem_ctrls.readPktSize::6                  2391                       # Read request sizes (log2)
system.mem_ctrls.writePktSize::0                    0                       # Write request sizes (log2)
system.mem_ctrls.writePktSize::1                    0                       # Write request sizes (log2)
system.mem_ctrls.writePktSize::2                    0                       # Write request sizes (log2)
system.mem_ctrls.writePktSize::3                    0                       # Write request sizes (log2)
system.mem_ctrls.writePktSize::4                    0                       # Write request sizes (log2)
system.mem_ctrls.writePktSize::5                    0                       # Write request sizes (log2)
system.mem_ctrls.writePktSize::6                    0                       # Write request sizes (log2)
system.mem_ctrls.rdQLenPdf::0                    1375                       # What read queue length does an incoming req see
system.mem_ctrls.rdQLenPdf::1                     903                       # What read queue length does an incoming req see
system.mem_ctrls.rdQLenPdf::2                      79                       # What read queue length does an incoming req see
system.mem_ctrls.rdQLenPdf::3                      25                       # What read queue length does an incoming req see
system.mem_ctrls.rdQLenPdf::4                       8                       # What read queue length does an incoming req see
system.mem_ctrls.rdQLenPdf::5                       1                       # What read queue length does an incoming req see
system.mem_ctrls.rdQLenPdf::6                       0                       # What read queue length does an incoming req see
system.mem_ctrls.rdQLenPdf::7                       0                       # What read queue length does an incoming req see
system.mem_ctrls.rdQLenPdf::8                       0                       # What read queue length does an incoming req see
system.mem_ctrls.rdQLenPdf::9                       0                       # What read queue length does an incoming req see
system.mem_ctrls.rdQLenPdf::10                      0                       # What read queue length does an incoming req see
system.mem_ctrls.rdQLenPdf::11                      0                       # What read queue length does an incoming req see
system.mem_ctrls.rdQLenPdf::12                      0                       # What read queue length does an incoming req see
system.mem_ctrls.rdQLenPdf::13                      0                       # What read queue length does an incoming req see
system.mem_ctrls.rdQLenPdf::14                      0                       # What read queue length does an incoming req see
system.mem_ctrls.rdQLenPdf::15                      0                       # What read queue length does an incoming req see
system.mem_ctrls.rdQLenPdf::16                      0                       # What read queue length does an incoming req see
system.mem_ctrls.rdQLenPdf::17                      0                       # What read queue length does an incoming req see
system.mem_ctrls.rdQLenPdf::18                      0                       # What read queue length does an incoming req see
system.mem_ctrls.rdQLenPdf::19                      0                       # What read queue length does an incoming req see
system.mem_ctrls.rdQLenPdf::20                      0                       # What read queue length does an incoming req see
system.mem_ctrls.rdQLenPdf::21                      0                       # What read queue length does an incoming req see
system.mem_ctrls.rdQLenPdf::22                      0                       # What read queue length does an incoming req see
system.mem_ctrls.rdQLenPdf::23                      0                       # What read queue length does an incoming req see
system.mem_ctrls.rdQLenPdf::24                      0                       # What read queue length does an incoming req see
system.mem_ctrls.rdQLenPdf::25                      0                       # What read queue length does an incoming req see
system.mem_ctrls.rdQLenPdf::26                      0                       # What read queue length does an incoming req see
system.mem_ctrls.rdQLenPdf::27                      0                       # What read queue length does an incoming req see
system.mem_ctrls.rdQLenPdf::28                      0                       # What read queue length does an incoming req see
system.mem_ctrls.rdQLenPdf::29                      0                       # What read queue length does an incoming req see
system.mem_ctrls.rdQLenPdf::30                      0                       # What read queue length does an incoming req see
system.mem_ctrls.rdQLenPdf::31                      0                       # What read queue length does an incoming req see
system.mem_ctrls.wrQLenPdf::0                       0                       # What write queue length does an incoming req see
system.mem_ctrls.wrQLenPdf::1                       0                       # What write queue length does an incoming req see
system.mem_ctrls.wrQLenPdf::2                       0                       # What write queue length does an incoming req see
system.mem_ctrls.wrQLenPdf::3                       0                       # What write queue length does an incoming req see
system.mem_ctrls.wrQLenPdf::4                       0                       # What write queue length does an incoming req see
system.mem_ctrls.wrQLenPdf::5                       0                       # What write queue length does an incoming req see
system.mem_ctrls.wrQLenPdf::6                       0                       # What write queue length does an incoming req see
system.mem_ctrls.wrQLenPdf::7                       0                       # What write queue length does an incoming req see
system.mem_ctrls.wrQLenPdf::8                       0                       # What write queue length does an incoming req see
system.mem_ctrls.wrQLenPdf::9                       0                       # What write queue length does an incoming req see
system.mem_ctrls.wrQLenPdf::10                      0                       # What write queue length does an incoming req see
system.mem_ctrls.wrQLenPdf::11                      0                       # What write queue length does an incoming req see
system.mem_ctrls.wrQLenPdf::12                      0                       # What write queue length does an incoming req see
system.mem_ctrls.wrQLenPdf::13                      0                       # What write queue length does an incoming req see
system.mem_ctrls.wrQLenPdf::14                      0                       # What write queue length does an incoming req see
system.mem_ctrls.wrQLenPdf::15                      0                       # What write queue length does an incoming req see
system.mem_ctrls.wrQLenPdf::16                      0                       # What write queue length does an incoming req see
system.mem_ctrls.wrQLenPdf::17                      0                       # What write queue length does an incoming req see
system.mem_ctrls.wrQLenPdf::18                      0                       # What write queue length does an incoming req see
system.mem_ctrls.wrQLenPdf::19                      0                       # What write queue length does an incoming req see
system.mem_ctrls.wrQLenPdf::20                      0                       # What write queue length does an incoming req see
system.mem_ctrls.wrQLenPdf::21                      0                       # What write queue length does an incoming req see
system.mem_ctrls.wrQLenPdf::22                      0                       # What write queue length does an incoming req see
system.mem_ctrls.wrQLenPdf::23                      0                       # What write queue length does an incoming req see
system.mem_ctrls.wrQLenPdf::24                      0                       # What write queue length does an incoming req see
system.mem_ctrls.wrQLenPdf::25                      0                       # What write queue length does an incoming req see
system.mem_ctrls.wrQLenPdf::26                      0                       # What write queue length does an incoming req see
system.mem_ctrls.wrQLenPdf::27                      0                       # What write queue length does an incoming req see
system.mem_ctrls.wrQLenPdf::28                      0                       # What write queue length does an incoming req see
system.mem_ctrls.wrQLenPdf::29                      0                       # What write queue length does an incoming req see
system.mem_ctrls.wrQLenPdf::30                      0                       # What write queue length does an incoming req see
system.mem_ctrls.wrQLenPdf::31                      0                       # What write queue length does an incoming req see
system.mem_ctrls.wrQLenPdf::32                      0                       # What write queue length does an incoming req see
system.mem_ctrls.wrQLenPdf::33                      0                       # What write queue length does an incoming req see
system.mem_ctrls.wrQLenPdf::34                      0                       # What write queue length does an incoming req see
system.mem_ctrls.wrQLenPdf::35                      0                       # What write queue length does an incoming req see
system.mem_ctrls.wrQLenPdf::36                      0                       # What write queue length does an incoming req see
system.mem_ctrls.wrQLenPdf::37                      0                       # What write queue length does an incoming req see
system.mem_ctrls.wrQLenPdf::38                      0                       # What write queue length does an incoming req see
system.mem_ctrls.wrQLenPdf::39                      0                       # What write queue length does an incoming req see
system.mem_ctrls.wrQLenPdf::40                      0                       # What write queue length does an incoming req see
system.mem_ctrls.wrQLenPdf::41                      0                       # What write queue length does an incoming req see
system.mem_ctrls.wrQLenPdf::42                      0                       # What write queue length does an incoming req see
system.mem_ctrls.wrQLenPdf::43                      0                       # What write queue length does an incoming req see
system.mem_ctrls.wrQLenPdf::44                      0                       # What write queue length does an incoming req see
system.mem_ctrls.wrQLenPdf::45                      0                       # What write queue length does an incoming req see
system.mem_ctrls.wrQLenPdf::46                      0                       # What write queue length does an incoming req see
system.mem_ctrls.wrQLenPdf::47                      0                       # What write queue length does an incoming req see
system.mem_ctrls.wrQLenPdf::48                      0                       # What write queue length does an incoming req see
system.mem_ctrls.wrQLenPdf::49                      0                       # What write queue length does an incoming req see
system.mem_ctrls.wrQLenPdf::50                      0                       # What write queue length does an incoming req see
system.mem_ctrls.wrQLenPdf::51                      0                       # What write queue length does an incoming req see
system.mem_ctrls.wrQLenPdf::52                      0                       # What write queue length does an incoming req see
system.mem_ctrls.wrQLenPdf::53                      0                       # What write queue length does an incoming req see
system.mem_ctrls.wrQLenPdf::54                      0                       # What write queue length does an incoming req see
system.mem_ctrls.wrQLenPdf::55                      0                       # What write queue length does an incoming req see
system.mem_ctrls.wrQLenPdf::56                      0                       # What write queue length does an incoming req see
system.mem_ctrls.wrQLenPdf::57                      0                       # What write queue length does an incoming req see
system.mem_ctrls.wrQLenPdf::58                      0                       # What write queue length does an incoming req see
system.mem_ctrls.wrQLenPdf::59                      0                       # What write queue length does an incoming req see
system.mem_ctrls.wrQLenPdf::60                      0                       # What write queue length does an incoming req see
system.mem_ctrls.wrQLenPdf::61                      0                       # What write queue length does an incoming req see
system.mem_ctrls.wrQLenPdf::62                      0                       # What write queue length does an incoming req see
system.mem_ctrls.wrQLenPdf::63                      0                       # What write queue length does an incoming req see
system.mem_ctrls.bytesPerActivate::samples          287                       # Bytes accessed per row activation
system.mem_ctrls.bytesPerActivate::mean    527.386760                       # Bytes accessed per row activation
system.mem_ctrls.bytesPerActivate::gmean   315.511924                       # Bytes accessed per row activation
system.mem_ctrls.bytesPerActivate::stdev   423.589276                       # Bytes accessed per row activation
system.mem_ctrls.bytesPerActivate::0-127           66     23.00%     23.00% # Bytes accessed per row activation
system.mem_ctrls.bytesPerActivate::128-255           52     18.12%     41.11% # Bytes accessed per row activation
system.mem_ctrls.bytesPerActivate::256-383           27      9.41%     50.52% # Bytes accessed per row activation
system.mem_ctrls.bytesPerActivate::384-511            8      2.79%     53.31% # Bytes accessed per row activation
system.mem_ctrls.bytesPerActivate::512-639            8      2.79%     56.10% # Bytes accessed per row activation
system.mem_ctrls.bytesPerActivate::640-767            8      2.79%     58.89% # Bytes accessed per row activation
system.mem_ctrls.bytesPerActivate::768-895            4      1.39%     60.28% # Bytes accessed per row activation
system.mem_ctrls.bytesPerActivate::896-1023            8      2.79%     63.07% # Bytes accessed per row activation
system.mem_ctrls.bytesPerActivate::1024-1151          106     36.93%    100.00% # Bytes accessed per row activation
system.mem_ctrls.bytesPerActivate::total          287                       # Bytes accessed per row activation
system.mem_ctrls.totQLat                     14191000                       # Total ticks spent queuing
system.mem_ctrls.totMemAccLat                59022250                       # Total ticks spent from burst creation until serviced by the DRAM
system.mem_ctrls.totBusLat                   11955000                       # Total ticks spent in databus transfers
system.mem_ctrls.avgQLat                      5935.17                       # Average queueing delay per DRAM burst
system.mem_ctrls.avgBusLat                    5000.00                       # Average bus latency per DRAM burst
system.mem_ctrls.avgMemAccLat                24685.17                       # Average memory access latency per DRAM burst
system.mem_ctrls.avgRdBW                       398.21                       # Average DRAM read bandwidth in MiByte/s
system.mem_ctrls.avgWrBW                         0.00                       # Average achieved write bandwidth in MiByte/s
system.mem_ctrls.avgRdBWSys                    398.21                       # Average system read bandwidth in MiByte/s
system.mem_ctrls.avgWrBWSys                      0.00                       # Average system write bandwidth in MiByte/s
system.mem_ctrls.peakBW                      12800.00                       # Theoretical peak bandwidth in MiByte/s
system.mem_ctrls.busUtil                         3.11                       # Data bus utilization in percentage
system.mem_ctrls.busUtilRead                     3.11                       # Data bus utilization in percentage for reads
system.mem_ctrls.busUtilWrite                    0.00                       # Data bus utilization in percentage for writes
system.mem_ctrls.avgRdQLen                       1.20                       # Average read queue length when enqueuing
system.mem_ctrls.avgWrQLen                       0.00                       # Average write queue length when enqueuing
system.mem_ctrls.readRowHits                     2094                       # Number of row buffer hits during reads
system.mem_ctrls.writeRowHits                       0                       # Number of row buffer hits during writes
system.mem_ctrls.readRowHitRate                 87.58                       # Row buffer hit rate for reads
system.mem_ctrls.writeRowHitRate                  nan                       # Row buffer hit rate for writes
system.mem_ctrls.avgGap                     160702.01                       # Average gap between requests
system.mem_ctrls.pageHitRate                    87.58                       # Row buffer hit rate, read and write combined
system.mem_ctrls_0.actEnergy                  1443960                       # Energy for activate commands per rank (pJ)
system.mem_ctrls_0.preEnergy                   787875                       # Energy for precharge commands per rank (pJ)
system.mem_ctrls_0.readEnergy                10007400                       # Energy for read commands per rank (pJ)
system.mem_ctrls_0.writeEnergy                      0                       # Energy for write commands per rank (pJ)
system.mem_ctrls_0.refreshEnergy             24919440                       # Energy for refresh commands per rank (pJ)
system.mem_ctrls_0.actBackEnergy             58653855                       # Energy for active background per rank (pJ)
system.mem_ctrls_0.preBackEnergy            177621000                       # Energy for precharge background per rank (pJ)
system.mem_ctrls_0.totalEnergy              273433530                       # Total energy per rank (pJ)
system.mem_ctrls_0.averagePower            716.195332                       # Core power per rank (mW)
system.mem_ctrls_0.memoryStateTime::IDLE    294955500                       # Time in different power states
system.mem_ctrls_0.memoryStateTime::REF      12740000                       # Time in different power states
system.mem_ctrls_0.memoryStateTime::PRE_PDN            0                       # Time in different power states
system.mem_ctrls_0.memoryStateTime::ACT      74196500                       # Time in different power states
system.mem_ctrls_0.memoryStateTime::ACT_PDN            0                       # Time in different power states
system.mem_ctrls_1.actEnergy                   695520                       # Energy for activate commands per rank (pJ)
system.mem_ctrls_1.preEnergy                   379500                       # Energy for precharge commands per rank (pJ)
system.mem_ctrls_1.readEnergy                 8283600                       # Energy for read commands per rank (pJ)
system.mem_ctrls_1.writeEnergy                      0                       # Energy for write commands per rank (pJ)
system.mem_ctrls_1.refreshEnergy             24919440                       # Energy for refresh commands per rank (pJ)
system.mem_ctrls_1.actBackEnergy             60271515                       # Energy for active background per rank (pJ)
system.mem_ctrls_1.preBackEnergy            176202000                       # Energy for precharge background per rank (pJ)
system.mem_ctrls_1.totalEnergy              270751575                       # Total energy per rank (pJ)
system.mem_ctrls_1.averagePower            709.170576                       # Core power per rank (mW)
system.mem_ctrls_1.memoryStateTime::IDLE    292684750                       # Time in different power states
system.mem_ctrls_1.memoryStateTime::REF      12740000                       # Time in different power states
system.mem_ctrls_1.memoryStateTime::PRE_PDN            0                       # Time in different power states
system.mem_ctrls_1.memoryStateTime::ACT      76757750                       # Time in different power states
system.mem_ctrls_1.memoryStateTime::ACT_PDN            0                       # Time in different power states
system.cpu0.branchPred.lookups                  95644                       # Number of BP lookups
system.cpu0.branchPred.condPredicted            92880                       # Number of conditional branches predicted
system.cpu0.branchPred.condIncorrect             2215                       # Number of conditional branches incorrect
system.cpu0.branchPred.BTBLookups               92946                       # Number of BTB lookups
system.cpu0.branchPred.BTBHits                  88968                       # Number of BTB hits
system.cpu0.branchPred.BTBCorrect                   0                       # Number of correct BTB predictions (this stat may not work properly.
system.cpu0.branchPred.BTBHitPct            95.720096                       # BTB Hit Percentage
system.cpu0.branchPred.usedRAS                    991                       # Number of times the RAS was used to get a target.
system.cpu0.branchPred.RASInCorrect                15                       # Number of incorrect RAS predictions.
system.cpu_voltage_domain.voltage                   1                       # Voltage in Volts
system.cpu_clk_domain.clock                       500                       # Clock period in ticks
system.cpu0.dstage2_mmu.stage2_tlb.walker.walks            0                       # Table walker walks requested
system.cpu0.dstage2_mmu.stage2_tlb.walker.walkRequestOrigin_Requested::Data            0                       # Table walker requests started/completed, data/inst
system.cpu0.dstage2_mmu.stage2_tlb.walker.walkRequestOrigin_Requested::Inst            0                       # Table walker requests started/completed, data/inst
system.cpu0.dstage2_mmu.stage2_tlb.walker.walkRequestOrigin_Requested::total            0                       # Table walker requests started/completed, data/inst
system.cpu0.dstage2_mmu.stage2_tlb.walker.walkRequestOrigin_Completed::Data            0                       # Table walker requests started/completed, data/inst
system.cpu0.dstage2_mmu.stage2_tlb.walker.walkRequestOrigin_Completed::Inst            0                       # Table walker requests started/completed, data/inst
system.cpu0.dstage2_mmu.stage2_tlb.walker.walkRequestOrigin_Completed::total            0                       # Table walker requests started/completed, data/inst
system.cpu0.dstage2_mmu.stage2_tlb.walker.walkRequestOrigin::total            0                       # Table walker requests started/completed, data/inst
system.cpu0.dstage2_mmu.stage2_tlb.inst_hits            0                       # ITB inst hits
system.cpu0.dstage2_mmu.stage2_tlb.inst_misses            0                       # ITB inst misses
system.cpu0.dstage2_mmu.stage2_tlb.read_hits            0                       # DTB read hits
system.cpu0.dstage2_mmu.stage2_tlb.read_misses            0                       # DTB read misses
system.cpu0.dstage2_mmu.stage2_tlb.write_hits            0                       # DTB write hits
system.cpu0.dstage2_mmu.stage2_tlb.write_misses            0                       # DTB write misses
system.cpu0.dstage2_mmu.stage2_tlb.flush_tlb            0                       # Number of times complete TLB was flushed
system.cpu0.dstage2_mmu.stage2_tlb.flush_tlb_mva            0                       # Number of times TLB was flushed by MVA
system.cpu0.dstage2_mmu.stage2_tlb.flush_tlb_mva_asid            0                       # Number of times TLB was flushed by MVA & ASID
system.cpu0.dstage2_mmu.stage2_tlb.flush_tlb_asid            0                       # Number of times TLB was flushed by ASID
system.cpu0.dstage2_mmu.stage2_tlb.flush_entries            0                       # Number of entries that have been flushed from TLB
system.cpu0.dstage2_mmu.stage2_tlb.align_faults            0                       # Number of TLB faults due to alignment restrictions
system.cpu0.dstage2_mmu.stage2_tlb.prefetch_faults            0                       # Number of TLB faults due to prefetch
system.cpu0.dstage2_mmu.stage2_tlb.domain_faults            0                       # Number of TLB faults due to domain restrictions
system.cpu0.dstage2_mmu.stage2_tlb.perms_faults            0                       # Number of TLB faults due to permissions restrictions
system.cpu0.dstage2_mmu.stage2_tlb.read_accesses            0                       # DTB read accesses
system.cpu0.dstage2_mmu.stage2_tlb.write_accesses            0                       # DTB write accesses
system.cpu0.dstage2_mmu.stage2_tlb.inst_accesses            0                       # ITB inst accesses
system.cpu0.dstage2_mmu.stage2_tlb.hits             0                       # DTB hits
system.cpu0.dstage2_mmu.stage2_tlb.misses            0                       # DTB misses
system.cpu0.dstage2_mmu.stage2_tlb.accesses            0                       # DTB accesses
system.cpu0.dtb.walker.walks                        0                       # Table walker walks requested
system.cpu0.dtb.walker.walkRequestOrigin_Requested::Data            0                       # Table walker requests started/completed, data/inst
system.cpu0.dtb.walker.walkRequestOrigin_Requested::Inst            0                       # Table walker requests started/completed, data/inst
system.cpu0.dtb.walker.walkRequestOrigin_Requested::total            0                       # Table walker requests started/completed, data/inst
system.cpu0.dtb.walker.walkRequestOrigin_Completed::Data            0                       # Table walker requests started/completed, data/inst
system.cpu0.dtb.walker.walkRequestOrigin_Completed::Inst            0                       # Table walker requests started/completed, data/inst
system.cpu0.dtb.walker.walkRequestOrigin_Completed::total            0                       # Table walker requests started/completed, data/inst
system.cpu0.dtb.walker.walkRequestOrigin::total            0                       # Table walker requests started/completed, data/inst
system.cpu0.dtb.inst_hits                           0                       # ITB inst hits
system.cpu0.dtb.inst_misses                         0                       # ITB inst misses
system.cpu0.dtb.read_hits                           0                       # DTB read hits
system.cpu0.dtb.read_misses                         0                       # DTB read misses
system.cpu0.dtb.write_hits                          0                       # DTB write hits
system.cpu0.dtb.write_misses                        0                       # DTB write misses
system.cpu0.dtb.flush_tlb                           0                       # Number of times complete TLB was flushed
system.cpu0.dtb.flush_tlb_mva                       0                       # Number of times TLB was flushed by MVA
system.cpu0.dtb.flush_tlb_mva_asid                  0                       # Number of times TLB was flushed by MVA & ASID
system.cpu0.dtb.flush_tlb_asid                      0                       # Number of times TLB was flushed by ASID
system.cpu0.dtb.flush_entries                       0                       # Number of entries that have been flushed from TLB
system.cpu0.dtb.align_faults                        0                       # Number of TLB faults due to alignment restrictions
system.cpu0.dtb.prefetch_faults                     0                       # Number of TLB faults due to prefetch
system.cpu0.dtb.domain_faults                       0                       # Number of TLB faults due to domain restrictions
system.cpu0.dtb.perms_faults                        0                       # Number of TLB faults due to permissions restrictions
system.cpu0.dtb.read_accesses                       0                       # DTB read accesses
system.cpu0.dtb.write_accesses                      0                       # DTB write accesses
system.cpu0.dtb.inst_accesses                       0                       # ITB inst accesses
system.cpu0.dtb.hits                                0                       # DTB hits
system.cpu0.dtb.misses                              0                       # DTB misses
system.cpu0.dtb.accesses                            0                       # DTB accesses
system.cpu0.istage2_mmu.stage2_tlb.walker.walks            0                       # Table walker walks requested
system.cpu0.istage2_mmu.stage2_tlb.walker.walkRequestOrigin_Requested::Data            0                       # Table walker requests started/completed, data/inst
system.cpu0.istage2_mmu.stage2_tlb.walker.walkRequestOrigin_Requested::Inst            0                       # Table walker requests started/completed, data/inst
system.cpu0.istage2_mmu.stage2_tlb.walker.walkRequestOrigin_Requested::total            0                       # Table walker requests started/completed, data/inst
system.cpu0.istage2_mmu.stage2_tlb.walker.walkRequestOrigin_Completed::Data            0                       # Table walker requests started/completed, data/inst
system.cpu0.istage2_mmu.stage2_tlb.walker.walkRequestOrigin_Completed::Inst            0                       # Table walker requests started/completed, data/inst
system.cpu0.istage2_mmu.stage2_tlb.walker.walkRequestOrigin_Completed::total            0                       # Table walker requests started/completed, data/inst
system.cpu0.istage2_mmu.stage2_tlb.walker.walkRequestOrigin::total            0                       # Table walker requests started/completed, data/inst
system.cpu0.istage2_mmu.stage2_tlb.inst_hits            0                       # ITB inst hits
system.cpu0.istage2_mmu.stage2_tlb.inst_misses            0                       # ITB inst misses
system.cpu0.istage2_mmu.stage2_tlb.read_hits            0                       # DTB read hits
system.cpu0.istage2_mmu.stage2_tlb.read_misses            0                       # DTB read misses
system.cpu0.istage2_mmu.stage2_tlb.write_hits            0                       # DTB write hits
system.cpu0.istage2_mmu.stage2_tlb.write_misses            0                       # DTB write misses
system.cpu0.istage2_mmu.stage2_tlb.flush_tlb            0                       # Number of times complete TLB was flushed
system.cpu0.istage2_mmu.stage2_tlb.flush_tlb_mva            0                       # Number of times TLB was flushed by MVA
system.cpu0.istage2_mmu.stage2_tlb.flush_tlb_mva_asid            0                       # Number of times TLB was flushed by MVA & ASID
system.cpu0.istage2_mmu.stage2_tlb.flush_tlb_asid            0                       # Number of times TLB was flushed by ASID
system.cpu0.istage2_mmu.stage2_tlb.flush_entries            0                       # Number of entries that have been flushed from TLB
system.cpu0.istage2_mmu.stage2_tlb.align_faults            0                       # Number of TLB faults due to alignment restrictions
system.cpu0.istage2_mmu.stage2_tlb.prefetch_faults            0                       # Number of TLB faults due to prefetch
system.cpu0.istage2_mmu.stage2_tlb.domain_faults            0                       # Number of TLB faults due to domain restrictions
system.cpu0.istage2_mmu.stage2_tlb.perms_faults            0                       # Number of TLB faults due to permissions restrictions
system.cpu0.istage2_mmu.stage2_tlb.read_accesses            0                       # DTB read accesses
system.cpu0.istage2_mmu.stage2_tlb.write_accesses            0                       # DTB write accesses
system.cpu0.istage2_mmu.stage2_tlb.inst_accesses            0                       # ITB inst accesses
system.cpu0.istage2_mmu.stage2_tlb.hits             0                       # DTB hits
system.cpu0.istage2_mmu.stage2_tlb.misses            0                       # DTB misses
system.cpu0.istage2_mmu.stage2_tlb.accesses            0                       # DTB accesses
system.cpu0.itb.walker.walks                        0                       # Table walker walks requested
system.cpu0.itb.walker.walkRequestOrigin_Requested::Data            0                       # Table walker requests started/completed, data/inst
system.cpu0.itb.walker.walkRequestOrigin_Requested::Inst            0                       # Table walker requests started/completed, data/inst
system.cpu0.itb.walker.walkRequestOrigin_Requested::total            0                       # Table walker requests started/completed, data/inst
system.cpu0.itb.walker.walkRequestOrigin_Completed::Data            0                       # Table walker requests started/completed, data/inst
system.cpu0.itb.walker.walkRequestOrigin_Completed::Inst            0                       # Table walker requests started/completed, data/inst
system.cpu0.itb.walker.walkRequestOrigin_Completed::total            0                       # Table walker requests started/completed, data/inst
system.cpu0.itb.walker.walkRequestOrigin::total            0                       # Table walker requests started/completed, data/inst
system.cpu0.itb.inst_hits                           0                       # ITB inst hits
system.cpu0.itb.inst_misses                         0                       # ITB inst misses
system.cpu0.itb.read_hits                           0                       # DTB read hits
system.cpu0.itb.read_misses                         0                       # DTB read misses
system.cpu0.itb.write_hits                          0                       # DTB write hits
system.cpu0.itb.write_misses                        0                       # DTB write misses
system.cpu0.itb.flush_tlb                           0                       # Number of times complete TLB was flushed
system.cpu0.itb.flush_tlb_mva                       0                       # Number of times TLB was flushed by MVA
system.cpu0.itb.flush_tlb_mva_asid                  0                       # Number of times TLB was flushed by MVA & ASID
system.cpu0.itb.flush_tlb_asid                      0                       # Number of times TLB was flushed by ASID
system.cpu0.itb.flush_entries                       0                       # Number of entries that have been flushed from TLB
system.cpu0.itb.align_faults                        0                       # Number of TLB faults due to alignment restrictions
system.cpu0.itb.prefetch_faults                     0                       # Number of TLB faults due to prefetch
system.cpu0.itb.domain_faults                       0                       # Number of TLB faults due to domain restrictions
system.cpu0.itb.perms_faults                        0                       # Number of TLB faults due to permissions restrictions
system.cpu0.itb.read_accesses                       0                       # DTB read accesses
system.cpu0.itb.write_accesses                      0                       # DTB write accesses
system.cpu0.itb.inst_accesses                       0                       # ITB inst accesses
system.cpu0.itb.hits                                0                       # DTB hits
system.cpu0.itb.misses                              0                       # DTB misses
system.cpu0.itb.accesses                            0                       # DTB accesses
system.cpu0.workload.num_syscalls                  28                       # Number of system calls
system.cpu0.numCycles                          768565                       # number of cpu cycles simulated
system.cpu0.numWorkItemsStarted                     0                       # number of work items this cpu started
system.cpu0.numWorkItemsCompleted                   0                       # number of work items this cpu completed
system.cpu0.fetch.icacheStallCycles            178116                       # Number of cycles fetch is stalled on an Icache miss
system.cpu0.fetch.Insts                       1268626                       # Number of instructions fetch has processed
system.cpu0.fetch.Branches                      95644                       # Number of branches that fetch encountered
system.cpu0.fetch.predictedBranches             89959                       # Number of branches that fetch has predicted taken
system.cpu0.fetch.Cycles                       544085                       # Number of cycles fetch has run and was not squashing or blocked
system.cpu0.fetch.SquashCycles                   4537                       # Number of cycles fetch has spent squashing
system.cpu0.fetch.PendingTrapStallCycles            4                       # Number of stall cycles due to pending traps
system.cpu0.fetch.CacheLines                   162422                       # Number of cache lines fetched
system.cpu0.fetch.IcacheSquashes                  767                       # Number of outstanding Icache misses that were squashed
system.cpu0.fetch.rateDist::samples            724473                       # Number of instructions fetched each cycle (Total)
system.cpu0.fetch.rateDist::mean             1.797914                       # Number of instructions fetched each cycle (Total)
system.cpu0.fetch.rateDist::stdev            2.880371                       # Number of instructions fetched each cycle (Total)
system.cpu0.fetch.rateDist::underflows              0      0.00%      0.00% # Number of instructions fetched each cycle (Total)
system.cpu0.fetch.rateDist::0                  479674     66.21%     66.21% # Number of instructions fetched each cycle (Total)
system.cpu0.fetch.rateDist::1                   24109      3.33%     69.54% # Number of instructions fetched each cycle (Total)
system.cpu0.fetch.rateDist::2                   20271      2.80%     72.34% # Number of instructions fetched each cycle (Total)
system.cpu0.fetch.rateDist::3                   23564      3.25%     75.59% # Number of instructions fetched each cycle (Total)
system.cpu0.fetch.rateDist::4                   23800      3.29%     78.87% # Number of instructions fetched each cycle (Total)
system.cpu0.fetch.rateDist::5                   16020      2.21%     81.08% # Number of instructions fetched each cycle (Total)
system.cpu0.fetch.rateDist::6                   24699      3.41%     84.49% # Number of instructions fetched each cycle (Total)
system.cpu0.fetch.rateDist::7                   54985      7.59%     92.08% # Number of instructions fetched each cycle (Total)
system.cpu0.fetch.rateDist::8                   57351      7.92%    100.00% # Number of instructions fetched each cycle (Total)
system.cpu0.fetch.rateDist::overflows               0      0.00%    100.00% # Number of instructions fetched each cycle (Total)
system.cpu0.fetch.rateDist::min_value               0                       # Number of instructions fetched each cycle (Total)
system.cpu0.fetch.rateDist::max_value               8                       # Number of instructions fetched each cycle (Total)
system.cpu0.fetch.rateDist::total              724473                       # Number of instructions fetched each cycle (Total)
system.cpu0.fetch.branchRate                 0.124445                       # Number of branch fetches per cycle
system.cpu0.fetch.rate                       1.650642                       # Number of inst fetches per cycle
system.cpu0.decode.IdleCycles                   71158                       # Number of cycles decode is idle
system.cpu0.decode.BlockedCycles               490390                       # Number of cycles decode is blocked
system.cpu0.decode.RunCycles                    29355                       # Number of cycles decode is running
system.cpu0.decode.UnblockCycles               131646                       # Number of cycles decode is unblocking
system.cpu0.decode.SquashCycles                  1924                       # Number of cycles decode is squashing
system.cpu0.decode.BranchResolved                1264                       # Number of times decode resolved a branch
system.cpu0.decode.BranchMispred                  355                       # Number of times decode detected a branch misprediction
system.cpu0.decode.DecodedInsts               1250534                       # Number of instructions handled by decode
system.cpu0.decode.SquashedInsts                 1329                       # Number of squashed instructions handled by decode
system.cpu0.rename.SquashCycles                  1924                       # Number of cycles rename is squashing
system.cpu0.rename.IdleCycles                  111041                       # Number of cycles rename is idle
system.cpu0.rename.BlockCycles                  40368                       # Number of cycles rename is blocking
system.cpu0.rename.serializeStallCycles          8811                       # count of cycles rename stalled for serializing inst
system.cpu0.rename.RunCycles                   120614                       # Number of cycles rename is running
system.cpu0.rename.UnblockCycles               441715                       # Number of cycles rename is unblocking
system.cpu0.rename.RenamedInsts               1244946                       # Number of instructions processed by rename
system.cpu0.rename.ROBFullEvents                   15                       # Number of times rename has blocked due to ROB full
system.cpu0.rename.IQFullEvents                302646                       # Number of times rename has blocked due to IQ full
system.cpu0.rename.LQFullEvents                  7882                       # Number of times rename has blocked due to LQ full
system.cpu0.rename.SQFullEvents                119315                       # Number of times rename has blocked due to SQ full
system.cpu0.rename.RenamedOperands            1596390                       # Number of destination operands rename has renamed
system.cpu0.rename.RenameLookups              6161118                       # Number of register rename lookups that rename has made
system.cpu0.rename.int_rename_lookups         2050101                       # Number of integer rename lookups
system.cpu0.rename.fp_rename_lookups               22                       # Number of floating rename lookups
system.cpu0.rename.CommittedMaps              1483194                       # Number of HB maps that are committed
system.cpu0.rename.UndoneMaps                  113196                       # Number of HB maps that are undone due to squashing
system.cpu0.rename.serializingInsts               145                       # count of serializing insts renamed
system.cpu0.rename.tempSerializingInsts           145                       # count of temporary serializing insts renamed
system.cpu0.rename.skidInsts                   631617                       # count of insts added to the skid buffer
system.cpu0.memDep0.insertedLoads              289537                       # Number of loads inserted to the mem dependence unit.
system.cpu0.memDep0.insertedStores              51325                       # Number of stores inserted to the mem dependence unit.
system.cpu0.memDep0.conflictingLoads             2496                       # Number of conflicting loads.
system.cpu0.memDep0.conflictingStores             425                       # Number of conflicting stores.
system.cpu0.iq.iqInstsAdded                   1236797                       # Number of instructions added to the IQ (excludes non-spec)
system.cpu0.iq.iqNonSpecInstsAdded                283                       # Number of non-speculative instructions added to the IQ
system.cpu0.iq.iqInstsIssued                  1163840                       # Number of instructions issued
system.cpu0.iq.iqSquashedInstsIssued             5436                       # Number of squashed instructions issued
system.cpu0.iq.iqSquashedInstsExamined          83197                       # Number of squashed instructions iterated over during squash; mainly for profiling
system.cpu0.iq.iqSquashedOperandsExamined       371584                       # Number of squashed operands that are examined and possibly removed from graph
system.cpu0.iq.iqSquashedNonSpecRemoved            95                       # Number of squashed non-spec instructions that were removed
system.cpu0.iq.issued_per_cycle::samples       724473                       # Number of insts issued each cycle
system.cpu0.iq.issued_per_cycle::mean        1.606464                       # Number of insts issued each cycle
system.cpu0.iq.issued_per_cycle::stdev       0.784316                       # Number of insts issued each cycle
system.cpu0.iq.issued_per_cycle::underflows            0      0.00%      0.00% # Number of insts issued each cycle
system.cpu0.iq.issued_per_cycle::0             136377     18.82%     18.82% # Number of insts issued each cycle
system.cpu0.iq.issued_per_cycle::1              12352      1.70%     20.53% # Number of insts issued each cycle
system.cpu0.iq.issued_per_cycle::2             575744     79.47%    100.00% # Number of insts issued each cycle
system.cpu0.iq.issued_per_cycle::overflows            0      0.00%    100.00% # Number of insts issued each cycle
system.cpu0.iq.issued_per_cycle::min_value            0                       # Number of insts issued each cycle
system.cpu0.iq.issued_per_cycle::max_value            2                       # Number of insts issued each cycle
system.cpu0.iq.issued_per_cycle::total         724473                       # Number of insts issued each cycle
system.cpu0.iq.fu_full::No_OpClass                  0                       # attempts to use FU when none available
system.cpu0.iq.fu_full::IntAlu                      0                       # attempts to use FU when none available
system.cpu0.iq.fu_full::IntMult                     0                       # attempts to use FU when none available
system.cpu0.iq.fu_full::IntDiv                      0                       # attempts to use FU when none available
system.cpu0.iq.fu_full::FloatAdd                    0                       # attempts to use FU when none available
system.cpu0.iq.fu_full::FloatCmp                    0                       # attempts to use FU when none available
system.cpu0.iq.fu_full::FloatCvt                    0                       # attempts to use FU when none available
system.cpu0.iq.fu_full::FloatMult                   0                       # attempts to use FU when none available
system.cpu0.iq.fu_full::FloatDiv                    0                       # attempts to use FU when none available
system.cpu0.iq.fu_full::FloatSqrt                   0                       # attempts to use FU when none available
system.cpu0.iq.fu_full::SimdAdd                     0                       # attempts to use FU when none available
system.cpu0.iq.fu_full::SimdAddAcc                  0                       # attempts to use FU when none available
system.cpu0.iq.fu_full::SimdAlu                     0                       # attempts to use FU when none available
system.cpu0.iq.fu_full::SimdCmp                     0                       # attempts to use FU when none available
system.cpu0.iq.fu_full::SimdCvt                     0                       # attempts to use FU when none available
system.cpu0.iq.fu_full::SimdMisc                    0                       # attempts to use FU when none available
system.cpu0.iq.fu_full::SimdMult                    0                       # attempts to use FU when none available
system.cpu0.iq.fu_full::SimdMultAcc                 0                       # attempts to use FU when none available
system.cpu0.iq.fu_full::SimdShift                   0                       # attempts to use FU when none available
system.cpu0.iq.fu_full::SimdShiftAcc                0                       # attempts to use FU when none available
system.cpu0.iq.fu_full::SimdSqrt                    0                       # attempts to use FU when none available
system.cpu0.iq.fu_full::SimdFloatAdd                0                       # attempts to use FU when none available
system.cpu0.iq.fu_full::SimdFloatAlu                0                       # attempts to use FU when none available
system.cpu0.iq.fu_full::SimdFloatCmp                0                       # attempts to use FU when none available
system.cpu0.iq.fu_full::SimdFloatCvt                0                       # attempts to use FU when none available
system.cpu0.iq.fu_full::SimdFloatDiv                0                       # attempts to use FU when none available
system.cpu0.iq.fu_full::SimdFloatMisc               0                       # attempts to use FU when none available
system.cpu0.iq.fu_full::SimdFloatMult               0                       # attempts to use FU when none available
system.cpu0.iq.fu_full::SimdFloatMultAcc            0                       # attempts to use FU when none available
system.cpu0.iq.fu_full::SimdFloatSqrt               0                       # attempts to use FU when none available
system.cpu0.iq.fu_full::MemRead                     0                       # attempts to use FU when none available
system.cpu0.iq.fu_full::MemWrite                    0                       # attempts to use FU when none available
system.cpu0.iq.fu_full::IprAccess                   0                       # attempts to use FU when none available
system.cpu0.iq.fu_full::InstPrefetch                0                       # attempts to use FU when none available
system.cpu0.iq.FU_type_0::No_OpClass                0      0.00%      0.00% # Type of FU issued
system.cpu0.iq.FU_type_0::IntAlu               636757     54.71%     54.71% # Type of FU issued
system.cpu0.iq.FU_type_0::IntMult              204988     17.61%     72.32% # Type of FU issued
system.cpu0.iq.FU_type_0::IntDiv                    0      0.00%     72.32% # Type of FU issued
system.cpu0.iq.FU_type_0::FloatAdd                  0      0.00%     72.32% # Type of FU issued
system.cpu0.iq.FU_type_0::FloatCmp                  0      0.00%     72.32% # Type of FU issued
system.cpu0.iq.FU_type_0::FloatCvt                  0      0.00%     72.32% # Type of FU issued
system.cpu0.iq.FU_type_0::FloatMult                 0      0.00%     72.32% # Type of FU issued
system.cpu0.iq.FU_type_0::FloatDiv                  0      0.00%     72.32% # Type of FU issued
system.cpu0.iq.FU_type_0::FloatSqrt                 0      0.00%     72.32% # Type of FU issued
system.cpu0.iq.FU_type_0::SimdAdd                   0      0.00%     72.32% # Type of FU issued
system.cpu0.iq.FU_type_0::SimdAddAcc                0      0.00%     72.32% # Type of FU issued
system.cpu0.iq.FU_type_0::SimdAlu                   0      0.00%     72.32% # Type of FU issued
system.cpu0.iq.FU_type_0::SimdCmp                   0      0.00%     72.32% # Type of FU issued
system.cpu0.iq.FU_type_0::SimdCvt                   0      0.00%     72.32% # Type of FU issued
system.cpu0.iq.FU_type_0::SimdMisc                  0      0.00%     72.32% # Type of FU issued
system.cpu0.iq.FU_type_0::SimdMult                  0      0.00%     72.32% # Type of FU issued
system.cpu0.iq.FU_type_0::SimdMultAcc               0      0.00%     72.32% # Type of FU issued
system.cpu0.iq.FU_type_0::SimdShift                 0      0.00%     72.32% # Type of FU issued
system.cpu0.iq.FU_type_0::SimdShiftAcc              0      0.00%     72.32% # Type of FU issued
system.cpu0.iq.FU_type_0::SimdSqrt                  0      0.00%     72.32% # Type of FU issued
system.cpu0.iq.FU_type_0::SimdFloatAdd              0      0.00%     72.32% # Type of FU issued
system.cpu0.iq.FU_type_0::SimdFloatAlu              0      0.00%     72.32% # Type of FU issued
system.cpu0.iq.FU_type_0::SimdFloatCmp              0      0.00%     72.32% # Type of FU issued
system.cpu0.iq.FU_type_0::SimdFloatCvt              0      0.00%     72.32% # Type of FU issued
system.cpu0.iq.FU_type_0::SimdFloatDiv              0      0.00%     72.32% # Type of FU issued
system.cpu0.iq.FU_type_0::SimdFloatMisc             3      0.00%     72.33% # Type of FU issued
system.cpu0.iq.FU_type_0::SimdFloatMult             0      0.00%     72.33% # Type of FU issued
system.cpu0.iq.FU_type_0::SimdFloatMultAcc            0      0.00%     72.33% # Type of FU issued
system.cpu0.iq.FU_type_0::SimdFloatSqrt             0      0.00%     72.33% # Type of FU issued
system.cpu0.iq.FU_type_0::MemRead              273738     23.52%     95.85% # Type of FU issued
system.cpu0.iq.FU_type_0::MemWrite              48354      4.15%    100.00% # Type of FU issued
system.cpu0.iq.FU_type_0::IprAccess                 0      0.00%    100.00% # Type of FU issued
system.cpu0.iq.FU_type_0::InstPrefetch              0      0.00%    100.00% # Type of FU issued
system.cpu0.iq.FU_type_0::total               1163840                       # Type of FU issued
system.cpu0.iq.rate                          1.514303                       # Inst issue rate
system.cpu0.iq.fu_busy_cnt                          0                       # FU busy when requested
system.cpu0.iq.fu_busy_rate                         0                       # FU busy rate (busy events/executed inst)
system.cpu0.iq.int_inst_queue_reads           3057533                       # Number of integer instruction queue reads
system.cpu0.iq.int_inst_queue_writes          1320292                       # Number of integer instruction queue writes
system.cpu0.iq.int_inst_queue_wakeup_accesses      1160407                       # Number of integer instruction queue wakeup accesses
system.cpu0.iq.fp_inst_queue_reads                 56                       # Number of floating instruction queue reads
system.cpu0.iq.fp_inst_queue_writes                28                       # Number of floating instruction queue writes
system.cpu0.iq.fp_inst_queue_wakeup_accesses           28                       # Number of floating instruction queue wakeup accesses
system.cpu0.iq.int_alu_accesses               1163812                       # Number of integer alu accesses
system.cpu0.iq.fp_alu_accesses                     28                       # Number of floating point alu accesses
system.cpu0.iew.lsq.thread0.forwLoads              88                       # Number of loads that had data forwarded from stores
system.cpu0.iew.lsq.thread0.invAddrLoads            0                       # Number of loads ignored due to an invalid address
system.cpu0.iew.lsq.thread0.squashedLoads        19748                       # Number of loads squashed
system.cpu0.iew.lsq.thread0.ignoredResponses            3                       # Number of memory responses ignored because the instruction is squashed
system.cpu0.iew.lsq.thread0.memOrderViolation           43                       # Number of memory ordering violations
system.cpu0.iew.lsq.thread0.squashedStores         3381                       # Number of stores squashed
system.cpu0.iew.lsq.thread0.invAddrSwpfs            0                       # Number of software prefetches ignored due to an invalid address
system.cpu0.iew.lsq.thread0.blockedLoads            0                       # Number of blocked loads due to partial load-store forwarding
system.cpu0.iew.lsq.thread0.rescheduledLoads           65                       # Number of loads that were rescheduled
system.cpu0.iew.lsq.thread0.cacheBlocked           76                       # Number of times an access to memory failed due to the cache being blocked
system.cpu0.iew.iewIdleCycles                       0                       # Number of cycles IEW is idle
system.cpu0.iew.iewSquashCycles                  1924                       # Number of cycles IEW is squashing
system.cpu0.iew.iewBlockCycles                  10674                       # Number of cycles IEW is blocking
system.cpu0.iew.iewUnblockCycles                  482                       # Number of cycles IEW is unblocking
system.cpu0.iew.iewDispatchedInsts            1237087                       # Number of instructions dispatched to IQ
system.cpu0.iew.iewDispSquashedInsts              105                       # Number of squashed instructions skipped by dispatch
system.cpu0.iew.iewDispLoadInsts               289537                       # Number of dispatched load instructions
system.cpu0.iew.iewDispStoreInsts               51325                       # Number of dispatched store instructions
system.cpu0.iew.iewDispNonSpecInsts               131                       # Number of dispatched non-speculative instructions
system.cpu0.iew.iewIQFullEvents                    26                       # Number of times the IQ has become full, causing a stall
system.cpu0.iew.iewLSQFullEvents                  448                       # Number of times the LSQ has become full, causing a stall
system.cpu0.iew.memOrderViolationEvents            43                       # Number of memory order violations
system.cpu0.iew.predictedTakenIncorrect          1298                       # Number of branches that were predicted taken incorrectly
system.cpu0.iew.predictedNotTakenIncorrect          614                       # Number of branches that were predicted not taken incorrectly
system.cpu0.iew.branchMispredicts                1912                       # Number of branch mispredicts detected at execute
system.cpu0.iew.iewExecutedInsts              1162337                       # Number of executed instructions
system.cpu0.iew.iewExecLoadInsts               272502                       # Number of load instructions executed
system.cpu0.iew.iewExecSquashedInsts             1503                       # Number of squashed instructions skipped in execute
system.cpu0.iew.exec_swp                            0                       # number of swp insts executed
system.cpu0.iew.exec_nop                            7                       # number of nop insts executed
system.cpu0.iew.exec_refs                      320749                       # number of memory reference insts executed
system.cpu0.iew.exec_branches                   82532                       # Number of branches executed
system.cpu0.iew.exec_stores                     48247                       # Number of stores executed
system.cpu0.iew.exec_rate                    1.512347                       # Inst execution rate
system.cpu0.iew.wb_sent                       1160590                       # cumulative count of insts sent to commit
system.cpu0.iew.wb_count                      1160435                       # cumulative count of insts written-back
system.cpu0.iew.wb_producers                  1021339                       # num instructions producing a value
system.cpu0.iew.wb_consumers                  1819360                       # num instructions consuming a value
system.cpu0.iew.wb_penalized                        0                       # number of instrctions required to write to 'other' IQ
system.cpu0.iew.wb_rate                      1.509872                       # insts written-back per cycle
system.cpu0.iew.wb_fanout                    0.561373                       # average fanout of values written-back
system.cpu0.iew.wb_penalized_rate                   0                       # fraction of instructions written-back that wrote to 'other' IQ
system.cpu0.commit.commitSquashedInsts          83210                       # The number of squashed insts skipped by commit
system.cpu0.commit.commitNonSpecStalls            188                       # The number of times commit has been forced to stall to communicate backwards
system.cpu0.commit.branchMispredicts             1871                       # The number of times a branch was mispredicted
system.cpu0.commit.committed_per_cycle::samples       712858                       # Number of insts commited each cycle
system.cpu0.commit.committed_per_cycle::mean     1.618672                       # Number of insts commited each cycle
system.cpu0.commit.committed_per_cycle::stdev     2.366633                       # Number of insts commited each cycle
system.cpu0.commit.committed_per_cycle::underflows            0      0.00%      0.00% # Number of insts commited each cycle
system.cpu0.commit.committed_per_cycle::0       306432     42.99%     42.99% # Number of insts commited each cycle
system.cpu0.commit.committed_per_cycle::1       159113     22.32%     65.31% # Number of insts commited each cycle
system.cpu0.commit.committed_per_cycle::2       131982     18.51%     83.82% # Number of insts commited each cycle
system.cpu0.commit.committed_per_cycle::3        30175      4.23%     88.05% # Number of insts commited each cycle
system.cpu0.commit.committed_per_cycle::4         2234      0.31%     88.37% # Number of insts commited each cycle
system.cpu0.commit.committed_per_cycle::5         3469      0.49%     88.85% # Number of insts commited each cycle
system.cpu0.commit.committed_per_cycle::6         9359      1.31%     90.17% # Number of insts commited each cycle
system.cpu0.commit.committed_per_cycle::7         2906      0.41%     90.57% # Number of insts commited each cycle
system.cpu0.commit.committed_per_cycle::8        67188      9.43%    100.00% # Number of insts commited each cycle
system.cpu0.commit.committed_per_cycle::overflows            0      0.00%    100.00% # Number of insts commited each cycle
system.cpu0.commit.committed_per_cycle::min_value            0                       # Number of insts commited each cycle
system.cpu0.commit.committed_per_cycle::max_value            8                       # Number of insts commited each cycle
system.cpu0.commit.committed_per_cycle::total       712858                       # Number of insts commited each cycle
system.cpu0.commit.committedInsts             1124283                       # Number of instructions committed
system.cpu0.commit.committedOps               1153883                       # Number of ops (including micro ops) committed
system.cpu0.commit.swp_count                        0                       # Number of s/w prefetches committed
system.cpu0.commit.refs                        317733                       # Number of memory references committed
system.cpu0.commit.loads                       269789                       # Number of loads committed
system.cpu0.commit.membars                        113                       # Number of memory barriers committed
system.cpu0.commit.branches                     81743                       # Number of branches committed
system.cpu0.commit.fp_insts                        28                       # Number of committed floating point instructions.
system.cpu0.commit.int_insts                  1072721                       # Number of committed integer instructions.
system.cpu0.commit.function_calls                 325                       # Number of function calls committed.
system.cpu0.commit.op_class_0::No_OpClass            0      0.00%      0.00% # Class of committed instruction
system.cpu0.commit.op_class_0::IntAlu          631297     54.71%     54.71% # Class of committed instruction
system.cpu0.commit.op_class_0::IntMult         204850     17.75%     72.46% # Class of committed instruction
system.cpu0.commit.op_class_0::IntDiv               0      0.00%     72.46% # Class of committed instruction
system.cpu0.commit.op_class_0::FloatAdd             0      0.00%     72.46% # Class of committed instruction
system.cpu0.commit.op_class_0::FloatCmp             0      0.00%     72.46% # Class of committed instruction
system.cpu0.commit.op_class_0::FloatCvt             0      0.00%     72.46% # Class of committed instruction
system.cpu0.commit.op_class_0::FloatMult            0      0.00%     72.46% # Class of committed instruction
system.cpu0.commit.op_class_0::FloatDiv             0      0.00%     72.46% # Class of committed instruction
system.cpu0.commit.op_class_0::FloatSqrt            0      0.00%     72.46% # Class of committed instruction
system.cpu0.commit.op_class_0::SimdAdd              0      0.00%     72.46% # Class of committed instruction
system.cpu0.commit.op_class_0::SimdAddAcc            0      0.00%     72.46% # Class of committed instruction
system.cpu0.commit.op_class_0::SimdAlu              0      0.00%     72.46% # Class of committed instruction
system.cpu0.commit.op_class_0::SimdCmp              0      0.00%     72.46% # Class of committed instruction
system.cpu0.commit.op_class_0::SimdCvt              0      0.00%     72.46% # Class of committed instruction
system.cpu0.commit.op_class_0::SimdMisc             0      0.00%     72.46% # Class of committed instruction
system.cpu0.commit.op_class_0::SimdMult             0      0.00%     72.46% # Class of committed instruction
system.cpu0.commit.op_class_0::SimdMultAcc            0      0.00%     72.46% # Class of committed instruction
system.cpu0.commit.op_class_0::SimdShift            0      0.00%     72.46% # Class of committed instruction
system.cpu0.commit.op_class_0::SimdShiftAcc            0      0.00%     72.46% # Class of committed instruction
system.cpu0.commit.op_class_0::SimdSqrt             0      0.00%     72.46% # Class of committed instruction
system.cpu0.commit.op_class_0::SimdFloatAdd            0      0.00%     72.46% # Class of committed instruction
system.cpu0.commit.op_class_0::SimdFloatAlu            0      0.00%     72.46% # Class of committed instruction
system.cpu0.commit.op_class_0::SimdFloatCmp            0      0.00%     72.46% # Class of committed instruction
system.cpu0.commit.op_class_0::SimdFloatCvt            0      0.00%     72.46% # Class of committed instruction
system.cpu0.commit.op_class_0::SimdFloatDiv            0      0.00%     72.46% # Class of committed instruction
system.cpu0.commit.op_class_0::SimdFloatMisc            3      0.00%     72.46% # Class of committed instruction
system.cpu0.commit.op_class_0::SimdFloatMult            0      0.00%     72.46% # Class of committed instruction
system.cpu0.commit.op_class_0::SimdFloatMultAcc            0      0.00%     72.46% # Class of committed instruction
system.cpu0.commit.op_class_0::SimdFloatSqrt            0      0.00%     72.46% # Class of committed instruction
system.cpu0.commit.op_class_0::MemRead         269789     23.38%     95.84% # Class of committed instruction
system.cpu0.commit.op_class_0::MemWrite         47944      4.16%    100.00% # Class of committed instruction
system.cpu0.commit.op_class_0::IprAccess            0      0.00%    100.00% # Class of committed instruction
system.cpu0.commit.op_class_0::InstPrefetch            0      0.00%    100.00% # Class of committed instruction
system.cpu0.commit.op_class_0::total          1153883                       # Class of committed instruction
system.cpu0.commit.bw_lim_events                67188                       # number cycles where commit BW limit reached
[...]
system.l2.overall_mshr_miss_latency::cpu0.data    110387000                       # number of overall MSHR miss cycles
system.l2.overall_mshr_miss_latency::cpu1.inst      1133250                       # number of overall MSHR miss cycles
system.l2.overall_mshr_miss_latency::cpu1.data       333500                       # number of overall MSHR miss cycles
system.l2.overall_mshr_miss_latency::cpu2.inst       169250                       # number of overall MSHR miss cycles
system.l2.overall_mshr_miss_latency::cpu2.data       424750                       # number of overall MSHR miss cycles
system.l2.overall_mshr_miss_latency::cpu3.inst       329000                       # number of overall MSHR miss cycles
system.l2.overall_mshr_miss_latency::cpu3.data       403000                       # number of overall MSHR miss cycles
system.l2.overall_mshr_miss_latency::total    149016750                       # number of overall MSHR miss cycles
system.l2.ReadReq_mshr_miss_rate::cpu0.inst     0.853435                       # mshr miss rate for ReadReq accesses
system.l2.ReadReq_mshr_miss_rate::cpu0.data     0.058680                       # mshr miss rate for ReadReq accesses
system.l2.ReadReq_mshr_miss_rate::cpu1.inst     0.313725                       # mshr miss rate for ReadReq accesses
system.l2.ReadReq_mshr_miss_rate::cpu2.inst     0.057692                       # mshr miss rate for ReadReq accesses
system.l2.ReadReq_mshr_miss_rate::cpu2.data     0.005102                       # mshr miss rate for ReadReq accesses
system.l2.ReadReq_mshr_miss_rate::cpu3.inst     0.102041                       # mshr miss rate for ReadReq accesses
system.l2.ReadReq_mshr_miss_rate::cpu3.data     0.015873                       # mshr miss rate for ReadReq accesses
system.l2.ReadReq_mshr_miss_rate::total      0.221003                       # mshr miss rate for ReadReq accesses
system.l2.UpgradeReq_mshr_miss_rate::cpu0.data     0.923077                       # mshr miss rate for UpgradeReq accesses
system.l2.UpgradeReq_mshr_miss_rate::total     0.923077                       # mshr miss rate for UpgradeReq accesses
system.l2.SCUpgradeReq_mshr_miss_rate::cpu1.data            1                       # mshr miss rate for SCUpgradeReq accesses
system.l2.SCUpgradeReq_mshr_miss_rate::total     0.500000                       # mshr miss rate for SCUpgradeReq accesses
system.l2.ReadExReq_mshr_miss_rate::cpu0.data     0.458151                       # mshr miss rate for ReadExReq accesses
system.l2.ReadExReq_mshr_miss_rate::cpu1.data     0.003891                       # mshr miss rate for ReadExReq accesses
system.l2.ReadExReq_mshr_miss_rate::cpu2.data     0.003891                       # mshr miss rate for ReadExReq accesses
system.l2.ReadExReq_mshr_miss_rate::cpu3.data     0.003891                       # mshr miss rate for ReadExReq accesses
system.l2.ReadExReq_mshr_miss_rate::total     0.250297                       # mshr miss rate for ReadExReq accesses
system.l2.demand_mshr_miss_rate::cpu0.inst     0.853435                       # mshr miss rate for demand accesses
system.l2.demand_mshr_miss_rate::cpu0.data     0.314857                       # mshr miss rate for demand accesses
system.l2.demand_mshr_miss_rate::cpu1.inst     0.313725                       # mshr miss rate for demand accesses
system.l2.demand_mshr_miss_rate::cpu1.data     0.003613                       # mshr miss rate for demand accesses
system.l2.demand_mshr_miss_rate::cpu2.inst     0.057692                       # mshr miss rate for demand accesses
system.l2.demand_mshr_miss_rate::cpu2.data     0.004085                       # mshr miss rate for demand accesses
system.l2.demand_mshr_miss_rate::cpu3.inst     0.102041                       # mshr miss rate for demand accesses
system.l2.demand_mshr_miss_rate::cpu3.data     0.004583                       # mshr miss rate for demand accesses
system.l2.demand_mshr_miss_rate::total       0.240886                       # mshr miss rate for demand accesses
system.l2.overall_mshr_miss_rate::cpu0.inst     0.853435                       # mshr miss rate for overall accesses
system.l2.overall_mshr_miss_rate::cpu0.data     0.314857                       # mshr miss rate for overall accesses
system.l2.overall_mshr_miss_rate::cpu1.inst     0.313725                       # mshr miss rate for overall accesses
system.l2.overall_mshr_miss_rate::cpu1.data     0.003613                       # mshr miss rate for overall accesses
system.l2.overall_mshr_miss_rate::cpu2.inst     0.057692                       # mshr miss rate for overall accesses
system.l2.overall_mshr_miss_rate::cpu2.data     0.004085                       # mshr miss rate for overall accesses
system.l2.overall_mshr_miss_rate::cpu3.inst     0.102041                       # mshr miss rate for overall accesses
system.l2.overall_mshr_miss_rate::cpu3.data     0.004583                       # mshr miss rate for overall accesses
system.l2.overall_mshr_miss_rate::total      0.240886                       # mshr miss rate for overall accesses
system.l2.ReadReq_avg_mshr_miss_latency::cpu0.inst 64109.123435                       # average ReadReq mshr miss latency
system.l2.ReadReq_avg_mshr_miss_latency::cpu0.data 72302.083333                       # average ReadReq mshr miss latency
system.l2.ReadReq_avg_mshr_miss_latency::cpu1.inst 70828.125000                       # average ReadReq mshr miss latency
system.l2.ReadReq_avg_mshr_miss_latency::cpu2.inst 56416.666667                       # average ReadReq mshr miss latency
system.l2.ReadReq_avg_mshr_miss_latency::cpu2.data        70500                       # average ReadReq mshr miss latency
system.l2.ReadReq_avg_mshr_miss_latency::cpu3.inst        65800                       # average ReadReq mshr miss latency
system.l2.ReadReq_avg_mshr_miss_latency::cpu3.data        63500                       # average ReadReq mshr miss latency
system.l2.ReadReq_avg_mshr_miss_latency::total 65643.617021                       # average ReadReq mshr miss latency
system.l2.UpgradeReq_avg_mshr_miss_latency::cpu0.data 17917.666667                       # average UpgradeReq mshr miss latency
system.l2.UpgradeReq_avg_mshr_miss_latency::total 17917.666667                       # average UpgradeReq mshr miss latency
system.l2.SCUpgradeReq_avg_mshr_miss_latency::cpu1.data        17501                       # average SCUpgradeReq mshr miss latency
system.l2.SCUpgradeReq_avg_mshr_miss_latency::total        17501                       # average SCUpgradeReq mshr miss latency
system.l2.ReadExReq_avg_mshr_miss_latency::cpu0.data 60722.835821                       # average ReadExReq mshr miss latency
system.l2.ReadExReq_avg_mshr_miss_latency::cpu1.data        83375                       # average ReadExReq mshr miss latency
system.l2.ReadExReq_avg_mshr_miss_latency::cpu2.data 88562.500000                       # average ReadExReq mshr miss latency
system.l2.ReadExReq_avg_mshr_miss_latency::cpu3.data        84875                       # average ReadExReq mshr miss latency
system.l2.ReadExReq_avg_mshr_miss_latency::total 60899.822170                       # average ReadExReq mshr miss latency
system.l2.demand_avg_mshr_miss_latency::cpu0.inst 64109.123435                       # average overall mshr miss latency
system.l2.demand_avg_mshr_miss_latency::cpu0.data 61496.935933                       # average overall mshr miss latency
system.l2.demand_avg_mshr_miss_latency::cpu1.inst 70828.125000                       # average overall mshr miss latency
system.l2.demand_avg_mshr_miss_latency::cpu1.data        83375                       # average overall mshr miss latency
system.l2.demand_avg_mshr_miss_latency::cpu2.inst 56416.666667                       # average overall mshr miss latency
system.l2.demand_avg_mshr_miss_latency::cpu2.data        84950                       # average overall mshr miss latency
system.l2.demand_avg_mshr_miss_latency::cpu3.inst        65800                       # average overall mshr miss latency
system.l2.demand_avg_mshr_miss_latency::cpu3.data        80600                       # average overall mshr miss latency
system.l2.demand_avg_mshr_miss_latency::total 62297.972408                       # average overall mshr miss latency
system.l2.overall_avg_mshr_miss_latency::cpu0.inst 64109.123435                       # average overall mshr miss latency
system.l2.overall_avg_mshr_miss_latency::cpu0.data 61496.935933                       # average overall mshr miss latency
system.l2.overall_avg_mshr_miss_latency::cpu1.inst 70828.125000                       # average overall mshr miss latency
system.l2.overall_avg_mshr_miss_latency::cpu1.data        83375                       # average overall mshr miss latency
system.l2.overall_avg_mshr_miss_latency::cpu2.inst 56416.666667                       # average overall mshr miss latency
system.l2.overall_avg_mshr_miss_latency::cpu2.data        84950                       # average overall mshr miss latency
system.l2.overall_avg_mshr_miss_latency::cpu3.inst        65800                       # average overall mshr miss latency
system.l2.overall_avg_mshr_miss_latency::cpu3.data        80600                       # average overall mshr miss latency
system.l2.overall_avg_mshr_miss_latency::total 62297.972408                       # average overall mshr miss latency
system.l2.no_allocate_misses                        0                       # Number of misses that were no-allocate
system.membus.trans_dist::ReadReq                 704                       # Transaction distribution
system.membus.trans_dist::ReadResp                703                       # Transaction distribution
system.membus.trans_dist::UpgradeReq               18                       # Transaction distribution
system.membus.trans_dist::SCUpgradeReq              9                       # Transaction distribution
system.membus.trans_dist::UpgradeResp              13                       # Transaction distribution
system.membus.trans_dist::ReadExReq              1687                       # Transaction distribution
system.membus.trans_dist::ReadExResp             1687                       # Transaction distribution
system.membus.pkt_count_system.l2.mem_side::system.mem_ctrls.port         4821                       # Packet count per connected master and slave (bytes)
system.membus.pkt_count::total                   4821                       # Packet count per connected master and slave (bytes)
system.membus.pkt_size_system.l2.mem_side::system.mem_ctrls.port       152960                       # Cumulative packet size per connected master and slave (bytes)
system.membus.pkt_size::total                  152960                       # Cumulative packet size per connected master and slave (bytes)
system.membus.snoops                               14                       # Total snoops (count)
system.membus.snoop_fanout::samples              2418                       # Request fanout histogram
system.membus.snoop_fanout::mean                    0                       # Request fanout histogram
system.membus.snoop_fanout::stdev                   0                       # Request fanout histogram
system.membus.snoop_fanout::underflows              0      0.00%      0.00% # Request fanout histogram
system.membus.snoop_fanout::0                    2418    100.00%    100.00% # Request fanout histogram
system.membus.snoop_fanout::1                       0      0.00%    100.00% # Request fanout histogram
system.membus.snoop_fanout::overflows               0      0.00%    100.00% # Request fanout histogram
system.membus.snoop_fanout::min_value               0                       # Request fanout histogram
system.membus.snoop_fanout::max_value               0                       # Request fanout histogram
system.membus.snoop_fanout::total                2418                       # Request fanout histogram
system.membus.reqLayer0.occupancy             2631000                       # Layer occupancy (ticks)
system.membus.reqLayer0.utilization               0.7                       # Layer utilization (%)
system.membus.respLayer1.occupancy           12618737                       # Layer occupancy (ticks)
system.membus.respLayer1.utilization              3.3                       # Layer utilization (%)
system.tol2bus.trans_dist::ReadReq              10130                       # Transaction distribution
system.tol2bus.trans_dist::ReadResp             10128                       # Transaction distribution
system.tol2bus.trans_dist::Writeback             7054                       # Transaction distribution
system.tol2bus.trans_dist::UpgradeReq              19                       # Transaction distribution
system.tol2bus.trans_dist::SCUpgradeReq            10                       # Transaction distribution
system.tol2bus.trans_dist::UpgradeResp             29                       # Transaction distribution
system.tol2bus.trans_dist::SCUpgradeFailReq            1                       # Transaction distribution
system.tol2bus.trans_dist::UpgradeFailResp            1                       # Transaction distribution
system.tol2bus.trans_dist::ReadExReq             6746                       # Transaction distribution
system.tol2bus.trans_dist::ReadExResp            6746                       # Transaction distribution
system.tol2bus.pkt_count_system.cpu0.icache.mem_side::system.l2.cpu_side         1308                       # Packet count per connected master and slave (bytes)
system.tol2bus.pkt_count_system.cpu0.dcache.mem_side::system.l2.cpu_side        15178                       # Packet count per connected master and slave (bytes)
system.tol2bus.pkt_count_system.cpu1.icache.mem_side::system.l2.cpu_side          102                       # Packet count per connected master and slave (bytes)
system.tol2bus.pkt_count_system.cpu1.dcache.mem_side::system.l2.cpu_side         5670                       # Packet count per connected master and slave (bytes)
system.tol2bus.pkt_count_system.cpu2.icache.mem_side::system.l2.cpu_side          104                       # Packet count per connected master and slave (bytes)
system.tol2bus.pkt_count_system.cpu2.dcache.mem_side::system.l2.cpu_side         5861                       # Packet count per connected master and slave (bytes)
system.tol2bus.pkt_count_system.cpu3.icache.mem_side::system.l2.cpu_side           98                       # Packet count per connected master and slave (bytes)
system.tol2bus.pkt_count_system.cpu3.dcache.mem_side::system.l2.cpu_side         5582                       # Packet count per connected master and slave (bytes)
system.tol2bus.pkt_count::total                 33903                       # Packet count per connected master and slave (bytes)
system.tol2bus.pkt_size_system.cpu0.icache.mem_side::system.l2.cpu_side        41792                       # Cumulative packet size per connected master and slave (bytes)
system.tol2bus.pkt_size_system.cpu0.dcache.mem_side::system.l2.cpu_side       604032                       # Cumulative packet size per connected master and slave (bytes)
system.tol2bus.pkt_size_system.cpu1.icache.mem_side::system.l2.cpu_side         3264                       # Cumulative packet size per connected master and slave (bytes)
system.tol2bus.pkt_size_system.cpu1.dcache.mem_side::system.l2.cpu_side       139840                       # Cumulative packet size per connected master and slave (bytes)
system.tol2bus.pkt_size_system.cpu2.icache.mem_side::system.l2.cpu_side         3328                       # Cumulative packet size per connected master and slave (bytes)
system.tol2bus.pkt_size_system.cpu2.dcache.mem_side::system.l2.cpu_side       153920                       # Cumulative packet size per connected master and slave (bytes)
system.tol2bus.pkt_size_system.cpu3.icache.mem_side::system.l2.cpu_side         3136                       # Cumulative packet size per connected master and slave (bytes)
system.tol2bus.pkt_size_system.cpu3.dcache.mem_side::system.l2.cpu_side       137536                       # Cumulative packet size per connected master and slave (bytes)
system.tol2bus.pkt_size::total                1086848                       # Cumulative packet size per connected master and slave (bytes)
system.tol2bus.snoops                            6961                       # Total snoops (count)
system.tol2bus.snoop_fanout::samples            23960                       # Request fanout histogram
system.tol2bus.snoop_fanout::mean                   7                       # Request fanout histogram
system.tol2bus.snoop_fanout::stdev                  0                       # Request fanout histogram
system.tol2bus.snoop_fanout::underflows             0      0.00%      0.00% # Request fanout histogram
system.tol2bus.snoop_fanout::0                      0      0.00%      0.00% # Request fanout histogram
system.tol2bus.snoop_fanout::1                      0      0.00%      0.00% # Request fanout histogram
system.tol2bus.snoop_fanout::2                      0      0.00%      0.00% # Request fanout histogram
system.tol2bus.snoop_fanout::3                      0      0.00%      0.00% # Request fanout histogram
system.tol2bus.snoop_fanout::4                      0      0.00%      0.00% # Request fanout histogram
system.tol2bus.snoop_fanout::5                      0      0.00%      0.00% # Request fanout histogram
system.tol2bus.snoop_fanout::6                      0      0.00%      0.00% # Request fanout histogram
system.tol2bus.snoop_fanout::7                  23960    100.00%    100.00% # Request fanout histogram
system.tol2bus.snoop_fanout::8                      0      0.00%    100.00% # Request fanout histogram
system.tol2bus.snoop_fanout::overflows              0      0.00%    100.00% # Request fanout histogram
system.tol2bus.snoop_fanout::min_value              7                       # Request fanout histogram
system.tol2bus.snoop_fanout::max_value              7                       # Request fanout histogram
system.tol2bus.snoop_fanout::total              23960                       # Request fanout histogram
system.tol2bus.reqLayer0.occupancy           19034000                       # Layer occupancy (ticks)
system.tol2bus.reqLayer0.utilization              5.0                       # Layer utilization (%)
system.tol2bus.respLayer0.occupancy           1085236                       # Layer occupancy (ticks)
system.tol2bus.respLayer0.utilization             0.3                       # Layer utilization (%)
system.tol2bus.respLayer1.occupancy           8959992                       # Layer occupancy (ticks)
system.tol2bus.respLayer1.utilization             2.3                       # Layer utilization (%)
system.tol2bus.respLayer4.occupancy             80488                       # Layer occupancy (ticks)
system.tol2bus.respLayer4.utilization             0.0                       # Layer utilization (%)
system.tol2bus.respLayer5.occupancy           5225494                       # Layer occupancy (ticks)
system.tol2bus.respLayer5.utilization             1.4                       # Layer utilization (%)
system.tol2bus.respLayer8.occupancy             84223                       # Layer occupancy (ticks)
system.tol2bus.respLayer8.utilization             0.0                       # Layer utilization (%)
system.tol2bus.respLayer9.occupancy           5182489                       # Layer occupancy (ticks)
system.tol2bus.respLayer9.utilization             1.3                       # Layer utilization (%)
system.tol2bus.respLayer12.occupancy            78225                       # Layer occupancy (ticks)
system.tol2bus.respLayer12.utilization            0.0                       # Layer utilization (%)
system.tol2bus.respLayer13.occupancy          5153731                       # Layer occupancy (ticks)
system.tol2bus.respLayer13.utilization            1.3                       # Layer utilization (%)

---------- End Simulation Statistics   ----------
