
---------- Begin Simulation Statistics ----------
sim_seconds                                  0.000381                       # Number of seconds simulated
sim_ticks                                   380950000                       # Number of ticks simulated
final_tick                                  380950000                       # Number of ticks from beginning of simulation (restored from checkpoints and never reset)
sim_freq                                 1000000000000                       # Frequency of simulated ticks
host_inst_rate                                 205780                       # Simulator instruction rate (inst/s)
host_op_rate                                   207462                       # Simulator op (including micro ops) rate (op/s)
host_tick_rate                               18930648                       # Simulator tick rate (ticks/s)
host_mem_usage                                 665888                       # Number of bytes of host memory used
host_seconds                                    20.12                       # Real time elapsed on the host
sim_insts                                     4140992                       # Number of instructions simulated
sim_ops                                       4174851                       # Number of ops (including micro ops) simulated
system.voltage_domain.voltage                       1                       # Voltage in Volts
system.clk_domain.clock                          1000                       # Clock period in ticks
system.mem_ctrls.bytes_read::cpu0.inst          32576                       # Number of bytes read from this memory
system.mem_ctrls.bytes_read::cpu0.data         114176                       # Number of bytes read from this memory
system.mem_ctrls.bytes_read::cpu1.inst           1088                       # Number of bytes read from this memory
system.mem_ctrls.bytes_read::cpu1.data            256                       # Number of bytes read from this memory
system.mem_ctrls.bytes_read::cpu2.inst            192                       # Number of bytes read from this memory
system.mem_ctrls.bytes_read::cpu2.data            320                       # Number of bytes read from this memory
system.mem_ctrls.bytes_read::cpu3.inst            512                       # Number of bytes read from this memory
system.mem_ctrls.bytes_read::cpu3.data            320                       # Number of bytes read from this memory
system.mem_ctrls.bytes_read::total             149440                       # Number of bytes read from this memory
system.mem_ctrls.bytes_inst_read::cpu0.inst        32576                       # Number of instructions bytes read from this memory
system.mem_ctrls.bytes_inst_read::cpu1.inst         1088                       # Number of instructions bytes read from this memory
system.mem_ctrls.bytes_inst_read::cpu2.inst          192                       # Number of instructions bytes read from this memory
system.mem_ctrls.bytes_inst_read::cpu3.inst          512                       # Number of instructions bytes read from this memory
system.mem_ctrls.bytes_inst_read::total         34368                       # Number of instructions bytes read from this memory
system.mem_ctrls.num_reads::cpu0.inst             509                       # Number of read requests responded to by this memory
system.mem_ctrls.num_reads::cpu0.data            1784                       # Number of read requests responded to by this memory
system.mem_ctrls.num_reads::cpu1.inst              17                       # Number of read requests responded to by this memory
system.mem_ctrls.num_reads::cpu1.data               4                       # Number of read requests responded to by this memory
system.mem_ctrls.num_reads::cpu2.inst               3                       # Number of read requests responded to by this memory
system.mem_ctrls.num_reads::cpu2.data               5                       # Number of read requests responded to by this memory
system.mem_ctrls.num_reads::cpu3.inst               8                       # Number of read requests responded to by this memory
system.mem_ctrls.num_reads::cpu3.data               5                       # Number of read requests responded to by this memory
system.mem_ctrls.num_reads::total                2335                       # Number of read requests responded to by this memory
system.mem_ctrls.bw_read::cpu0.inst          85512534                       # Total read bandwidth from this memory (bytes/s)
system.mem_ctrls.bw_read::cpu0.data         299713873                       # Total read bandwidth from this memory (bytes/s)
system.mem_ctrls.bw_read::cpu1.inst           2856018                       # Total read bandwidth from this memory (bytes/s)
system.mem_ctrls.bw_read::cpu1.data            672004                       # Total read bandwidth from this memory (bytes/s)
system.mem_ctrls.bw_read::cpu2.inst            504003                       # Total read bandwidth from this memory (bytes/s)
system.mem_ctrls.bw_read::cpu2.data            840005                       # Total read bandwidth from this memory (bytes/s)
system.mem_ctrls.bw_read::cpu3.inst           1344008                       # Total read bandwidth from this memory (bytes/s)
system.mem_ctrls.bw_read::cpu3.data            840005                       # Total read bandwidth from this memory (bytes/s)
system.mem_ctrls.bw_read::total             392282452                       # Total read bandwidth from this memory (bytes/s)
system.mem_ctrls.bw_inst_read::cpu0.inst     85512534                       # Instruction read bandwidth from this memory (bytes/s)
system.mem_ctrls.bw_inst_read::cpu1.inst      2856018                       # Instruction read bandwidth from this memory (bytes/s)
system.mem_ctrls.bw_inst_read::cpu2.inst       504003                       # Instruction read bandwidth from this memory (bytes/s)
system.mem_ctrls.bw_inst_read::cpu3.inst      1344008                       # Instruction read bandwidth from this memory (bytes/s)
system.mem_ctrls.bw_inst_read::total         90216564                       # Instruction read bandwidth from this memory (bytes/s)
system.mem_ctrls.bw_total::cpu0.inst         85512534                       # Total bandwidth to/from this memory (bytes/s)
system.mem_ctrls.bw_total::cpu0.data        299713873                       # Total bandwidth to/from this memory (bytes/s)
system.mem_ctrls.bw_total::cpu1.inst          2856018                       # Total bandwidth to/from this memory (bytes/s)
system.mem_ctrls.bw_total::cpu1.data           672004                       # Total bandwidth to/from this memory (bytes/s)
system.mem_ctrls.bw_total::cpu2.inst           504003                       # Total bandwidth to/from this memory (bytes/s)
system.mem_ctrls.bw_total::cpu2.data           840005                       # Total bandwidth to/from this memory (bytes/s)
system.mem_ctrls.bw_total::cpu3.inst          1344008                       # Total bandwidth to/from this memory (bytes/s)
system.mem_ctrls.bw_total::cpu3.data           840005                       # Total bandwidth to/from this memory (bytes/s)
system.mem_ctrls.bw_total::total            392282452                       # Total bandwidth to/from this memory (bytes/s)
system.mem_ctrls.readReqs                        2335                       # Number of read requests accepted
system.mem_ctrls.writeReqs                          0                       # Number of write requests accepted
system.mem_ctrls.readBursts                      2335                       # Number of DRAM read bursts, including those serviced by the write queue
system.mem_ctrls.writeBursts                        0                       # Number of DRAM write bursts, including those merged in the write queue
system.mem_ctrls.bytesReadDRAM                 149440                       # Total number of bytes read from DRAM
system.mem_ctrls.bytesReadWrQ                       0                       # Total number of bytes read from write queue
system.mem_ctrls.bytesWritten                       0                       # Total number of bytes written to DRAM
system.mem_ctrls.bytesReadSys                  149440                       # Total read bytes from the system interface side
system.mem_ctrls.bytesWrittenSys                    0                       # Total written bytes from the system interface side
system.mem_ctrls.servicedByWrQ                      0                       # Number of DRAM read bursts serviced by the write queue
system.mem_ctrls.mergedWrBursts                     0                       # Number of DRAM write bursts merged with an existing one
system.mem_ctrls.neitherReadNorWriteReqs           13                       # Number of requests that are neither read nor write
system.mem_ctrls.perBankRdBursts::0               121                       # Per bank write bursts
system.mem_ctrls.perBankRdBursts::1               122                       # Per bank write bursts
system.mem_ctrls.perBankRdBursts::2               133                       # Per bank write bursts
system.mem_ctrls.perBankRdBursts::3               195                       # Per bank write bursts
system.mem_ctrls.perBankRdBursts::4               156                       # Per bank write bursts
system.mem_ctrls.perBankRdBursts::5               145                       # Per bank write bursts
system.mem_ctrls.perBankRdBursts::6               208                       # Per bank write bursts
system.mem_ctrls.perBankRdBursts::7               159                       # Per bank write bursts
system.mem_ctrls.perBankRdBursts::8               142                       # Per bank write bursts
system.mem_ctrls.perBankRdBursts::9               138                       # Per bank write bursts
system.mem_ctrls.perBankRdBursts::10              128                       # Per bank write bursts
system.mem_ctrls.perBankRdBursts::11              140                       # Per bank write bursts
system.mem_ctrls.perBankRdBursts::12              134                       # Per bank write bursts
system.mem_ctrls.perBankRdBursts::13              161                       # Per bank write bursts
system.mem_ctrls.perBankRdBursts::14              166                       # Per bank write bursts
system.mem_ctrls.perBankRdBursts::15               87                       # Per bank write bursts
system.mem_ctrls.perBankWrBursts::0                 0                       # Per bank write bursts
system.mem_ctrls.perBankWrBursts::1                 0                       # Per bank write bursts
system.mem_ctrls.perBankWrBursts::2                 0                       # Per bank write bursts
system.mem_ctrls.perBankWrBursts::3                 0                       # Per bank write bursts
system.mem_ctrls.perBankWrBursts::4                 0                       # Per bank write bursts
system.mem_ctrls.perBankWrBursts::5                 0                       # Per bank write bursts
system.mem_ctrls.perBankWrBursts::6                 0                       # Per bank write bursts
system.mem_ctrls.perBankWrBursts::7                 0                       # Per bank write bursts
system.mem_ctrls.perBankWrBursts::8                 0                       # Per bank write bursts
system.mem_ctrls.perBankWrBursts::9                 0                       # Per bank write bursts
system.mem_ctrls.perBankWrBursts::10                0                       # Per bank write bursts
system.mem_ctrls.perBankWrBursts::11                0                       # Per bank write bursts
system.mem_ctrls.perBankWrBursts::12                0                       # Per bank write bursts
system.mem_ctrls.perBankWrBursts::13                0                       # Per bank write bursts
system.mem_ctrls.perBankWrBursts::14                0                       # Per bank write bursts
system.mem_ctrls.perBankWrBursts::15                0                       # Per bank write bursts
system.mem_ctrls.numRdRetry                         0                       # Number of times read queue was full causing retry
system.mem_ctrls.numWrRetry                         0                       # Number of times write queue was full causing retry
system.mem_ctrls.totGap                     380906500                       # Total gap between requests
system.mem_ctrls.readPktSize::0                     0                       # Read request sizes (log2)
system.mem_ctrls.readPktSize::1                     0                       # Read request sizes (log2)
system.mem_ctrls.readPktSize::2                     0                       # Read request sizes (log2)
system.mem_ctrls.readPktSize::3                     0                       # Read request sizes (log2)
system.mem_ctrls.readPktSize::4                     0                       # Read request sizes (log2)
system.mem_ctrls.readPktSize::5                     0                       # Read request sizes (log2)
system.mem_ctrls.readPktSize::6                  2335                       # Read request sizes (log2)
system.mem_ctrls.writePktSize::0                    0                       # Write request sizes (log2)
system.mem_ctrls.writePktSize::1                    0                       # Write request sizes (log2)
system.mem_ctrls.writePktSize::2                    0                       # Write request sizes (log2)
system.mem_ctrls.writePktSize::3                    0                       # Write request sizes (log2)
system.mem_ctrls.writePktSize::4                    0                       # Write request sizes (log2)
system.mem_ctrls.writePktSize::5                    0                       # Write request sizes (log2)
system.mem_ctrls.writePktSize::6                    0                       # Write request sizes (log2)
system.mem_ctrls.rdQLenPdf::0                    1342                       # What read queue length does an incoming req see
system.mem_ctrls.rdQLenPdf::1                     887                       # What read queue length does an incoming req see
system.mem_ctrls.rdQLenPdf::2                      76                       # What read queue length does an incoming req see
system.mem_ctrls.rdQLenPdf::3                      21                       # What read queue length does an incoming req see
system.mem_ctrls.rdQLenPdf::4                       8                       # What read queue length does an incoming req see
system.mem_ctrls.rdQLenPdf::5                       1                       # What read queue length does an incoming req see
system.mem_ctrls.rdQLenPdf::6                       0                       # What read queue length does an incoming req see
system.mem_ctrls.rdQLenPdf::7                       0                       # What read queue length does an incoming req see
system.mem_ctrls.rdQLenPdf::8                       0                       # What read queue length does an incoming req see
system.mem_ctrls.rdQLenPdf::9                       0                       # What read queue length does an incoming req see
system.mem_ctrls.rdQLenPdf::10                      0                       # What read queue length does an incoming req see
system.mem_ctrls.rdQLenPdf::11                      0                       # What read queue length does an incoming req see
system.mem_ctrls.rdQLenPdf::12                      0                       # What read queue length does an incoming req see
system.mem_ctrls.rdQLenPdf::13                      0                       # What read queue length does an incoming req see
system.mem_ctrls.rdQLenPdf::14                      0                       # What read queue length does an incoming req see
system.mem_ctrls.rdQLenPdf::15                      0                       # What read queue length does an incoming req see
system.mem_ctrls.rdQLenPdf::16                      0                       # What read queue length does an incoming req see
system.mem_ctrls.rdQLenPdf::17                      0                       # What read queue length does an incoming req see
system.mem_ctrls.rdQLenPdf::18                      0                       # What read queue length does an incoming req see
system.mem_ctrls.rdQLenPdf::19                      0                       # What read queue length does an incoming req see
system.mem_ctrls.rdQLenPdf::20                      0                       # What read queue length does an incoming req see
system.mem_ctrls.rdQLenPdf::21                      0                       # What read queue length does an incoming req see
system.mem_ctrls.rdQLenPdf::22                      0                       # What read queue length does an incoming req see
system.mem_ctrls.rdQLenPdf::23                      0                       # What read queue length does an incoming req see
system.mem_ctrls.rdQLenPdf::24                      0                       # What read queue length does an incoming req see
system.mem_ctrls.rdQLenPdf::25                      0                       # What read queue length does an incoming req see
system.mem_ctrls.rdQLenPdf::26                      0                       # What read queue length does an incoming req see
system.mem_ctrls.rdQLenPdf::27                      0                       # What read queue length does an incoming req see
system.mem_ctrls.rdQLenPdf::28                      0                       # What read queue length does an incoming req see
system.mem_ctrls.rdQLenPdf::29                      0                       # What read queue length does an incoming req see
system.mem_ctrls.rdQLenPdf::30                      0                       # What read queue length does an incoming req see
system.mem_ctrls.rdQLenPdf::31                      0                       # What read queue length does an incoming req see
system.mem_ctrls.wrQLenPdf::0                       0                       # What write queue length does an incoming req see
system.mem_ctrls.wrQLenPdf::1                       0                       # What write queue length does an incoming req see
system.mem_ctrls.wrQLenPdf::2                       0                       # What write queue length does an incoming req see
system.mem_ctrls.wrQLenPdf::3                       0                       # What write queue length does an incoming req see
system.mem_ctrls.wrQLenPdf::4                       0                       # What write queue length does an incoming req see
system.mem_ctrls.wrQLenPdf::5                       0                       # What write queue length does an incoming req see
system.mem_ctrls.wrQLenPdf::6                       0                       # What write queue length does an incoming req see
system.mem_ctrls.wrQLenPdf::7                       0                       # What write queue length does an incoming req see
system.mem_ctrls.wrQLenPdf::8                       0                       # What write queue length does an incoming req see
system.mem_ctrls.wrQLenPdf::9                       0                       # What write queue length does an incoming req see
system.mem_ctrls.wrQLenPdf::10                      0                       # What write queue length does an incoming req see
system.mem_ctrls.wrQLenPdf::11                      0                       # What write queue length does an incoming req see
system.mem_ctrls.wrQLenPdf::12                      0                       # What write queue length does an incoming req see
system.mem_ctrls.wrQLenPdf::13                      0                       # What write queue length does an incoming req see
system.mem_ctrls.wrQLenPdf::14                      0                       # What write queue length does an incoming req see
system.mem_ctrls.wrQLenPdf::15                      0                       # What write queue length does an incoming req see
system.mem_ctrls.wrQLenPdf::16                      0                       # What write queue length does an incoming req see
system.mem_ctrls.wrQLenPdf::17                      0                       # What write queue length does an incoming req see
system.mem_ctrls.wrQLenPdf::18                      0                       # What write queue length does an incoming req see
system.mem_ctrls.wrQLenPdf::19                      0                       # What write queue length does an incoming req see
system.mem_ctrls.wrQLenPdf::20                      0                       # What write queue length does an incoming req see
system.mem_ctrls.wrQLenPdf::21                      0                       # What write queue length does an incoming req see
system.mem_ctrls.wrQLenPdf::22                      0                       # What write queue length does an incoming req see
system.mem_ctrls.wrQLenPdf::23                      0                       # What write queue length does an incoming req see
system.mem_ctrls.wrQLenPdf::24                      0                       # What write queue length does an incoming req see
system.mem_ctrls.wrQLenPdf::25                      0                       # What write queue length does an incoming req see
system.mem_ctrls.wrQLenPdf::26                      0                       # What write queue length does an incoming req see
system.mem_ctrls.wrQLenPdf::27                      0                       # What write queue length does an incoming req see
system.mem_ctrls.wrQLenPdf::28                      0                       # What write queue length does an incoming req see
system.mem_ctrls.wrQLenPdf::29                      0                       # What write queue length does an incoming req see
system.mem_ctrls.wrQLenPdf::30                      0                       # What write queue length does an incoming req see
system.mem_ctrls.wrQLenPdf::31                      0                       # What write queue length does an incoming req see
system.mem_ctrls.wrQLenPdf::32                      0                       # What write queue length does an incoming req see
system.mem_ctrls.wrQLenPdf::33                      0                       # What write queue length does an incoming req see
system.mem_ctrls.wrQLenPdf::34                      0                       # What write queue length does an incoming req see
system.mem_ctrls.wrQLenPdf::35                      0                       # What write queue length does an incoming req see
system.mem_ctrls.wrQLenPdf::36                      0                       # What write queue length does an incoming req see
system.mem_ctrls.wrQLenPdf::37                      0                       # What write queue length does an incoming req see
system.mem_ctrls.wrQLenPdf::38                      0                       # What write queue length does an incoming req see
system.mem_ctrls.wrQLenPdf::39                      0                       # What write queue length does an incoming req see
system.mem_ctrls.wrQLenPdf::40                      0                       # What write queue length does an incoming req see
system.mem_ctrls.wrQLenPdf::41                      0                       # What write queue length does an incoming req see
system.mem_ctrls.wrQLenPdf::42                      0                       # What write queue length does an incoming req see
system.mem_ctrls.wrQLenPdf::43                      0                       # What write queue length does an incoming req see
system.mem_ctrls.wrQLenPdf::44                      0                       # What write queue length does an incoming req see
system.mem_ctrls.wrQLenPdf::45                      0                       # What write queue length does an incoming req see
system.mem_ctrls.wrQLenPdf::46                      0                       # What write queue length does an incoming req see
system.mem_ctrls.wrQLenPdf::47                      0                       # What write queue length does an incoming req see
system.mem_ctrls.wrQLenPdf::48                      0                       # What write queue length does an incoming req see
system.mem_ctrls.wrQLenPdf::49                      0                       # What write queue length does an incoming req see
system.mem_ctrls.wrQLenPdf::50                      0                       # What write queue length does an incoming req see
system.mem_ctrls.wrQLenPdf::51                      0                       # What write queue length does an incoming req see
system.mem_ctrls.wrQLenPdf::52                      0                       # What write queue length does an incoming req see
system.mem_ctrls.wrQLenPdf::53                      0                       # What write queue length does an incoming req see
system.mem_ctrls.wrQLenPdf::54                      0                       # What write queue length does an incoming req see
system.mem_ctrls.wrQLenPdf::55                      0                       # What write queue length does an incoming req see
system.mem_ctrls.wrQLenPdf::56                      0                       # What write queue length does an incoming req see
system.mem_ctrls.wrQLenPdf::57                      0                       # What write queue length does an incoming req see
system.mem_ctrls.wrQLenPdf::58                      0                       # What write queue length does an incoming req see
system.mem_ctrls.wrQLenPdf::59                      0                       # What write queue length does an incoming req see
system.mem_ctrls.wrQLenPdf::60                      0                       # What write queue length does an incoming req see
system.mem_ctrls.wrQLenPdf::61                      0                       # What write queue length does an incoming req see
system.mem_ctrls.wrQLenPdf::62                      0                       # What write queue length does an incoming req see
system.mem_ctrls.wrQLenPdf::63                      0                       # What write queue length does an incoming req see
system.mem_ctrls.bytesPerActivate::samples          279                       # Bytes accessed per row activation
system.mem_ctrls.bytesPerActivate::mean    529.433692                       # Bytes accessed per row activation
system.mem_ctrls.bytesPerActivate::gmean   317.989996                       # Bytes accessed per row activation
system.mem_ctrls.bytesPerActivate::stdev   421.170699                       # Bytes accessed per row activation
system.mem_ctrls.bytesPerActivate::0-127           66     23.66%     23.66% # Bytes accessed per row activation
system.mem_ctrls.bytesPerActivate::128-255           44     15.77%     39.43% # Bytes accessed per row activation
system.mem_ctrls.bytesPerActivate::256-383           28     10.04%     49.46% # Bytes accessed per row activation
system.mem_ctrls.bytesPerActivate::384-511           11      3.94%     53.41% # Bytes accessed per row activation
system.mem_ctrls.bytesPerActivate::512-639            7      2.51%     55.91% # Bytes accessed per row activation
system.mem_ctrls.bytesPerActivate::640-767            8      2.87%     58.78% # Bytes accessed per row activation
system.mem_ctrls.bytesPerActivate::768-895            6      2.15%     60.93% # Bytes accessed per row activation
system.mem_ctrls.bytesPerActivate::896-1023            9      3.23%     64.16% # Bytes accessed per row activation
system.mem_ctrls.bytesPerActivate::1024-1151          100     35.84%    100.00% # Bytes accessed per row activation
system.mem_ctrls.bytesPerActivate::total          279                       # Bytes accessed per row activation
system.mem_ctrls.totQLat                     12967500                       # Total ticks spent queuing
system.mem_ctrls.totMemAccLat                56748750                       # Total ticks spent from burst creation until serviced by the DRAM
system.mem_ctrls.totBusLat                   11675000                       # Total ticks spent in databus transfers
system.mem_ctrls.avgQLat                      5553.53                       # Average queueing delay per DRAM burst
system.mem_ctrls.avgBusLat                    5000.00                       # Average bus latency per DRAM burst
system.mem_ctrls.avgMemAccLat                24303.53                       # Average memory access latency per DRAM burst
system.mem_ctrls.avgRdBW                       392.28                       # Average DRAM read bandwidth in MiByte/s
system.mem_ctrls.avgWrBW                         0.00                       # Average achieved write bandwidth in MiByte/s
system.mem_ctrls.avgRdBWSys                    392.28                       # Average system read bandwidth in MiByte/s
system.mem_ctrls.avgWrBWSys                      0.00                       # Average system write bandwidth in MiByte/s
system.mem_ctrls.peakBW                      12800.00                       # Theoretical peak bandwidth in MiByte/s
system.mem_ctrls.busUtil                         3.06                       # Data bus utilization in percentage
system.mem_ctrls.busUtilRead                     3.06                       # Data bus utilization in percentage for reads
system.mem_ctrls.busUtilWrite                    0.00                       # Data bus utilization in percentage for writes
system.mem_ctrls.avgRdQLen                       1.19                       # Average read queue length when enqueuing
system.mem_ctrls.avgWrQLen                       0.00                       # Average write queue length when enqueuing
system.mem_ctrls.readRowHits                     2046                       # Number of row buffer hits during reads
system.mem_ctrls.writeRowHits                       0                       # Number of row buffer hits during writes
system.mem_ctrls.readRowHitRate                 87.62                       # Row buffer hit rate for reads
system.mem_ctrls.writeRowHitRate                  nan                       # Row buffer hit rate for writes
system.mem_ctrls.avgGap                     163129.12                       # Average gap between requests
system.mem_ctrls.pageHitRate                    87.62                       # Row buffer hit rate, read and write combined
system.mem_ctrls_0.actEnergy                  1375920                       # Energy for activate commands per rank (pJ)
system.mem_ctrls_0.preEnergy                   750750                       # Energy for precharge commands per rank (pJ)
system.mem_ctrls_0.readEnergy                 9500400                       # Energy for read commands per rank (pJ)
system.mem_ctrls_0.writeEnergy                      0                       # Energy for write commands per rank (pJ)
system.mem_ctrls_0.refreshEnergy             24410880                       # Energy for refresh commands per rank (pJ)
system.mem_ctrls_0.actBackEnergy             54803790                       # Energy for active background per rank (pJ)
system.mem_ctrls_0.preBackEnergy            176318250                       # Energy for precharge background per rank (pJ)
system.mem_ctrls_0.totalEnergy              267159990                       # Total energy per rank (pJ)
system.mem_ctrls_0.averagePower            714.357787                       # Core power per rank (mW)
system.mem_ctrls_0.memoryStateTime::IDLE    296247750                       # Time in different power states
system.mem_ctrls_0.memoryStateTime::REF      12480000                       # Time in different power states
system.mem_ctrls_0.memoryStateTime::PRE_PDN            0                       # Time in different power states
system.mem_ctrls_0.memoryStateTime::ACT      68705250                       # Time in different power states
system.mem_ctrls_0.memoryStateTime::ACT_PDN            0                       # Time in different power states
system.mem_ctrls_1.actEnergy                   672840                       # Energy for activate commands per rank (pJ)
system.mem_ctrls_1.preEnergy                   367125                       # Energy for precharge commands per rank (pJ)
system.mem_ctrls_1.readEnergy                 8252400                       # Energy for read commands per rank (pJ)
system.mem_ctrls_1.writeEnergy                      0                       # Energy for write commands per rank (pJ)
system.mem_ctrls_1.refreshEnergy             24410880                       # Energy for refresh commands per rank (pJ)
system.mem_ctrls_1.actBackEnergy             59961150                       # Energy for active background per rank (pJ)
system.mem_ctrls_1.preBackEnergy            171794250                       # Energy for precharge background per rank (pJ)
system.mem_ctrls_1.totalEnergy              265458645                       # Total energy per rank (pJ)
system.mem_ctrls_1.averagePower            709.808569                       # Core power per rank (mW)
system.mem_ctrls_1.memoryStateTime::IDLE    290029250                       # Time in different power states
system.mem_ctrls_1.memoryStateTime::REF      12480000                       # Time in different power states
system.mem_ctrls_1.memoryStateTime::PRE_PDN            0                       # Time in different power states
system.mem_ctrls_1.memoryStateTime::ACT      76300250                       # Time in different power states
system.mem_ctrls_1.memoryStateTime::ACT_PDN            0                       # Time in different power states
system.cpu0.branchPred.lookups                  94170                       # Number of BP lookups
system.cpu0.branchPred.condPredicted            91802                       # Number of conditional branches predicted
system.cpu0.branchPred.condIncorrect             2089                       # Number of conditional branches incorrect
system.cpu0.branchPred.BTBLookups               91998                       # Number of BTB lookups
system.cpu0.branchPred.BTBHits                  88538                       # Number of BTB hits
system.cpu0.branchPred.BTBCorrect                   0                       # Number of correct BTB predictions (this stat may not work properly.
system.cpu0.branchPred.BTBHitPct            96.239049                       # BTB Hit Percentage
system.cpu0.branchPred.usedRAS                    858                       # Number of times the RAS was used to get a target.
system.cpu0.branchPred.RASInCorrect                14                       # Number of incorrect RAS predictions.
system.cpu_voltage_domain.voltage                   1                       # Voltage in Volts
system.cpu_clk_domain.clock                       500                       # Clock period in ticks
system.cpu0.dstage2_mmu.stage2_tlb.walker.walks            0                       # Table walker walks requested
system.cpu0.dstage2_mmu.stage2_tlb.walker.walkRequestOrigin_Requested::Data            0                       # Table walker requests started/completed, data/inst
system.cpu0.dstage2_mmu.stage2_tlb.walker.walkRequestOrigin_Requested::Inst            0                       # Table walker requests started/completed, data/inst
system.cpu0.dstage2_mmu.stage2_tlb.walker.walkRequestOrigin_Requested::total            0                       # Table walker requests started/completed, data/inst
system.cpu0.dstage2_mmu.stage2_tlb.walker.walkRequestOrigin_Completed::Data            0                       # Table walker requests started/completed, data/inst
system.cpu0.dstage2_mmu.stage2_tlb.walker.walkRequestOrigin_Completed::Inst            0                       # Table walker requests started/completed, data/inst
system.cpu0.dstage2_mmu.stage2_tlb.walker.walkRequestOrigin_Completed::total            0                       # Table walker requests started/completed, data/inst
system.cpu0.dstage2_mmu.stage2_tlb.walker.walkRequestOrigin::total            0                       # Table walker requests started/completed, data/inst
system.cpu0.dstage2_mmu.stage2_tlb.inst_hits            0                       # ITB inst hits
system.cpu0.dstage2_mmu.stage2_tlb.inst_misses            0                       # ITB inst misses
system.cpu0.dstage2_mmu.stage2_tlb.read_hits            0                       # DTB read hits
system.cpu0.dstage2_mmu.stage2_tlb.read_misses            0                       # DTB read misses
system.cpu0.dstage2_mmu.stage2_tlb.write_hits            0                       # DTB write hits
system.cpu0.dstage2_mmu.stage2_tlb.write_misses            0                       # DTB write misses
system.cpu0.dstage2_mmu.stage2_tlb.flush_tlb            0                       # Number of times complete TLB was flushed
system.cpu0.dstage2_mmu.stage2_tlb.flush_tlb_mva            0                       # Number of times TLB was flushed by MVA
system.cpu0.dstage2_mmu.stage2_tlb.flush_tlb_mva_asid            0                       # Number of times TLB was flushed by MVA & ASID
system.cpu0.dstage2_mmu.stage2_tlb.flush_tlb_asid            0                       # Number of times TLB was flushed by ASID
system.cpu0.dstage2_mmu.stage2_tlb.flush_entries            0                       # Number of entries that have been flushed from TLB
system.cpu0.dstage2_mmu.stage2_tlb.align_faults            0                       # Number of TLB faults due to alignment restrictions
system.cpu0.dstage2_mmu.stage2_tlb.prefetch_faults            0                       # Number of TLB faults due to prefetch
system.cpu0.dstage2_mmu.stage2_tlb.domain_faults            0                       # Number of TLB faults due to domain restrictions
system.cpu0.dstage2_mmu.stage2_tlb.perms_faults            0                       # Number of TLB faults due to permissions restrictions
system.cpu0.dstage2_mmu.stage2_tlb.read_accesses            0                       # DTB read accesses
system.cpu0.dstage2_mmu.stage2_tlb.write_accesses            0                       # DTB write accesses
system.cpu0.dstage2_mmu.stage2_tlb.inst_accesses            0                       # ITB inst accesses
system.cpu0.dstage2_mmu.stage2_tlb.hits             0                       # DTB hits
system.cpu0.dstage2_mmu.stage2_tlb.misses            0                       # DTB misses
system.cpu0.dstage2_mmu.stage2_tlb.accesses            0                       # DTB accesses
system.cpu0.dtb.walker.walks                        0                       # Table walker walks requested
system.cpu0.dtb.walker.walkRequestOrigin_Requested::Data            0                       # Table walker requests started/completed, data/inst
system.cpu0.dtb.walker.walkRequestOrigin_Requested::Inst            0                       # Table walker requests started/completed, data/inst
system.cpu0.dtb.walker.walkRequestOrigin_Requested::total            0                       # Table walker requests started/completed, data/inst
system.cpu0.dtb.walker.walkRequestOrigin_Completed::Data            0                       # Table walker requests started/completed, data/inst
system.cpu0.dtb.walker.walkRequestOrigin_Completed::Inst            0                       # Table walker requests started/completed, data/inst
system.cpu0.dtb.walker.walkRequestOrigin_Completed::total            0                       # Table walker requests started/completed, data/inst
system.cpu0.dtb.walker.walkRequestOrigin::total            0                       # Table walker requests started/completed, data/inst
system.cpu0.dtb.inst_hits                           0                       # ITB inst hits
system.cpu0.dtb.inst_misses                         0                       # ITB inst misses
system.cpu0.dtb.read_hits                           0                       # DTB read hits
system.cpu0.dtb.read_misses                         0                       # DTB read misses
system.cpu0.dtb.write_hits                          0                       # DTB write hits
system.cpu0.dtb.write_misses                        0                       # DTB write misses
system.cpu0.dtb.flush_tlb                           0                       # Number of times complete TLB was flushed
system.cpu0.dtb.flush_tlb_mva                       0                       # Number of times TLB was flushed by MVA
system.cpu0.dtb.flush_tlb_mva_asid                  0                       # Number of times TLB was flushed by MVA & ASID
system.cpu0.dtb.flush_tlb_asid                      0                       # Number of times TLB was flushed by ASID
system.cpu0.dtb.flush_entries                       0                       # Number of entries that have been flushed from TLB
system.cpu0.dtb.align_faults                        0                       # Number of TLB faults due to alignment restrictions
system.cpu0.dtb.prefetch_faults                     0                       # Number of TLB faults due to prefetch
system.cpu0.dtb.domain_faults                       0                       # Number of TLB faults due to domain restrictions
system.cpu0.dtb.perms_faults                        0                       # Number of TLB faults due to permissions restrictions
system.cpu0.dtb.read_accesses                       0                       # DTB read accesses
system.cpu0.dtb.write_accesses                      0                       # DTB write accesses
system.cpu0.dtb.inst_accesses                       0                       # ITB inst accesses
system.cpu0.dtb.hits                                0                       # DTB hits
system.cpu0.dtb.misses                              0                       # DTB misses
system.cpu0.dtb.accesses                            0                       # DTB accesses
system.cpu0.istage2_mmu.stage2_tlb.walker.walks            0                       # Table walker walks requested
system.cpu0.istage2_mmu.stage2_tlb.walker.walkRequestOrigin_Requested::Data            0                       # Table walker requests started/completed, data/inst
system.cpu0.istage2_mmu.stage2_tlb.walker.walkRequestOrigin_Requested::Inst            0                       # Table walker requests started/completed, data/inst
system.cpu0.istage2_mmu.stage2_tlb.walker.walkRequestOrigin_Requested::total            0                       # Table walker requests started/completed, data/inst
system.cpu0.istage2_mmu.stage2_tlb.walker.walkRequestOrigin_Completed::Data            0                       # Table walker requests started/completed, data/inst
system.cpu0.istage2_mmu.stage2_tlb.walker.walkRequestOrigin_Completed::Inst            0                       # Table walker requests started/completed, data/inst
system.cpu0.istage2_mmu.stage2_tlb.walker.walkRequestOrigin_Completed::total            0                       # Table walker requests started/completed, data/inst
system.cpu0.istage2_mmu.stage2_tlb.walker.walkRequestOrigin::total            0                       # Table walker requests started/completed, data/inst
system.cpu0.istage2_mmu.stage2_tlb.inst_hits            0                       # ITB inst hits
system.cpu0.istage2_mmu.stage2_tlb.inst_misses            0                       # ITB inst misses
system.cpu0.istage2_mmu.stage2_tlb.read_hits            0                       # DTB read hits
system.cpu0.istage2_mmu.stage2_tlb.read_misses            0                       # DTB read misses
system.cpu0.istage2_mmu.stage2_tlb.write_hits            0                       # DTB write hits
system.cpu0.istage2_mmu.stage2_tlb.write_misses            0                       # DTB write misses
system.cpu0.istage2_mmu.stage2_tlb.flush_tlb            0                       # Number of times complete TLB was flushed
system.cpu0.istage2_mmu.stage2_tlb.flush_tlb_mva            0                       # Number of times TLB was flushed by MVA
system.cpu0.istage2_mmu.stage2_tlb.flush_tlb_mva_asid            0                       # Number of times TLB was flushed by MVA & ASID
system.cpu0.istage2_mmu.stage2_tlb.flush_tlb_asid            0                       # Number of times TLB was flushed by ASID
system.cpu0.istage2_mmu.stage2_tlb.flush_entries            0                       # Number of entries that have been flushed from TLB
system.cpu0.istage2_mmu.stage2_tlb.align_faults            0                       # Number of TLB faults due to alignment restrictions
system.cpu0.istage2_mmu.stage2_tlb.prefetch_faults            0                       # Number of TLB faults due to prefetch
system.cpu0.istage2_mmu.stage2_tlb.domain_faults            0                       # Number of TLB faults due to domain restrictions
system.cpu0.istage2_mmu.stage2_tlb.perms_faults            0                       # Number of TLB faults due to permissions restrictions
system.cpu0.istage2_mmu.stage2_tlb.read_accesses            0                       # DTB read accesses
system.cpu0.istage2_mmu.stage2_tlb.write_accesses            0                       # DTB write accesses
system.cpu0.istage2_mmu.stage2_tlb.inst_accesses            0                       # ITB inst accesses
system.cpu0.istage2_mmu.stage2_tlb.hits             0                       # DTB hits
system.cpu0.istage2_mmu.stage2_tlb.misses            0                       # DTB misses
system.cpu0.istage2_mmu.stage2_tlb.accesses            0                       # DTB accesses
system.cpu0.itb.walker.walks                        0                       # Table walker walks requested
system.cpu0.itb.walker.walkRequestOrigin_Requested::Data            0                       # Table walker requests started/completed, data/inst
system.cpu0.itb.walker.walkRequestOrigin_Requested::Inst            0                       # Table walker requests started/completed, data/inst
system.cpu0.itb.walker.walkRequestOrigin_Requested::total            0                       # Table walker requests started/completed, data/inst
system.cpu0.itb.walker.walkRequestOrigin_Completed::Data            0                       # Table walker requests started/completed, data/inst
system.cpu0.itb.walker.walkRequestOrigin_Completed::Inst            0                       # Table walker requests started/completed, data/inst
system.cpu0.itb.walker.walkRequestOrigin_Completed::total            0                       # Table walker requests started/completed, data/inst
system.cpu0.itb.walker.walkRequestOrigin::total            0                       # Table walker requests started/completed, data/inst
system.cpu0.itb.inst_hits                           0                       # ITB inst hits
system.cpu0.itb.inst_misses                         0                       # ITB inst misses
system.cpu0.itb.read_hits                           0                       # DTB read hits
system.cpu0.itb.read_misses                         0                       # DTB read misses
system.cpu0.itb.write_hits                          0                       # DTB write hits
system.cpu0.itb.write_misses                        0                       # DTB write misses
system.cpu0.itb.flush_tlb                           0                       # Number of times complete TLB was flushed
system.cpu0.itb.flush_tlb_mva                       0                       # Number of times TLB was flushed by MVA
system.cpu0.itb.flush_tlb_mva_asid                  0                       # Number of times TLB was flushed by MVA & ASID
system.cpu0.itb.flush_tlb_asid                      0                       # Number of times TLB was flushed by ASID
system.cpu0.itb.flush_entries                       0                       # Number of entries that have been flushed from TLB
system.cpu0.itb.align_faults                        0                       # Number of TLB faults due to alignment restrictions
system.cpu0.itb.prefetch_faults                     0                       # Number of TLB faults due to prefetch
system.cpu0.itb.domain_faults                       0                       # Number of TLB faults due to domain restrictions
system.cpu0.itb.perms_faults                        0                       # Number of TLB faults due to permissions restrictions
system.cpu0.itb.read_accesses                       0                       # DTB read accesses
system.cpu0.itb.write_accesses                      0                       # DTB write accesses
system.cpu0.itb.inst_accesses                       0                       # ITB inst accesses
system.cpu0.itb.hits                                0                       # DTB hits
system.cpu0.itb.misses                              0                       # DTB misses
system.cpu0.itb.accesses                            0                       # DTB accesses
system.cpu0.workload.num_syscalls                  59                       # Number of system calls
system.cpu0.numCycles                          761901                       # number of cpu cycles simulated
system.cpu0.numWorkItemsStarted                     0                       # number of work items this cpu started
system.cpu0.numWorkItemsCompleted                   0                       # number of work items this cpu completed
system.cpu0.fetch.icacheStallCycles            176223                       # Number of cycles fetch is stalled on an Icache miss
system.cpu0.fetch.Insts                       1262357                       # Number of instructions fetch has processed
system.cpu0.fetch.Branches                      94170                       # Number of branches that fetch encountered
system.cpu0.fetch.predictedBranches             89396                       # Number of branches that fetch has predicted taken
system.cpu0.fetch.Cycles                       541787                       # Number of cycles fetch has run and was not squashing or blocked
system.cpu0.fetch.SquashCycles                   4277                       # Number of cycles fetch has spent squashing
system.cpu0.fetch.MiscStallCycles                   1                       # Number of cycles fetch has spent waiting on interrupts, or bad addresses, or out of MSHRs
system.cpu0.fetch.PendingTrapStallCycles            4                       # Number of stall cycles due to pending traps
system.cpu0.fetch.IcacheWaitRetryStallCycles            1                       # Number of stall cycles due to full MSHR
system.cpu0.fetch.CacheLines                   161575                       # Number of cache lines fetched
system.cpu0.fetch.IcacheSquashes                  681                       # Number of outstanding Icache misses that were squashed
system.cpu0.fetch.rateDist::samples            720154                       # Number of instructions fetched each cycle (Total)
system.cpu0.fetch.rateDist::mean             1.798944                       # Number of instructions fetched each cycle (Total)
system.cpu0.fetch.rateDist::stdev            2.880104                       # Number of instructions fetched each cycle (Total)
system.cpu0.fetch.rateDist::underflows              0      0.00%      0.00% # Number of instructions fetched each cycle (Total)
system.cpu0.fetch.rateDist::0                  476556     66.17%     66.17% # Number of instructions fetched each cycle (Total)
system.cpu0.fetch.rateDist::1                   24021      3.34%     69.51% # Number of instructions fetched each cycle (Total)
system.cpu0.fetch.rateDist::2                   20191      2.80%     72.31% # Number of instructions fetched each cycle (Total)
system.cpu0.fetch.rateDist::3                   23489      3.26%     75.58% # Number of instructions fetched each cycle (Total)
system.cpu0.fetch.rateDist::4                   23633      3.28%     78.86% # Number of instructions fetched each cycle (Total)
system.cpu0.fetch.rateDist::5                   15963      2.22%     81.07% # Number of instructions fetched each cycle (Total)
system.cpu0.fetch.rateDist::6                   24600      3.42%     84.49% # Number of instructions fetched each cycle (Total)
system.cpu0.fetch.rateDist::7                   54908      7.62%     92.11% # Number of instructions fetched each cycle (Total)
system.cpu0.fetch.rateDist::8                   56793      7.89%    100.00% # Number of instructions fetched each cycle (Total)
system.cpu0.fetch.rateDist::overflows               0      0.00%    100.00% # Number of instructions fetched each cycle (Total)
system.cpu0.fetch.rateDist::min_value               0                       # Number of instructions fetched each cycle (Total)
system.cpu0.fetch.rateDist::max_value               8                       # Number of instructions fetched each cycle (Total)
system.cpu0.fetch.rateDist::total              720154                       # Number of instructions fetched each cycle (Total)
system.cpu0.fetch.branchRate                 0.123599                       # Number of branch fetches per cycle
system.cpu0.fetch.rate                       1.656852                       # Number of inst fetches per cycle
system.cpu0.decode.IdleCycles                   69625                       # Number of cycles decode is idle
system.cpu0.decode.BlockedCycles               488659                       # Number of cycles decode is blocked
system.cpu0.decode.RunCycles                    28516                       # Number of cycles decode is running
system.cpu0.decode.UnblockCycles               131520                       # Number of cycles decode is unblocking
system.cpu0.decode.SquashCycles                  1834                       # Number of cycles decode is squashing
system.cpu0.decode.BranchResolved                1061                       # Number of times decode resolved a branch
system.cpu0.decode.BranchMispred                  316                       # Number of times decode detected a branch misprediction
system.cpu0.decode.DecodedInsts               1244644                       # Number of instructions handled by decode
system.cpu0.decode.SquashedInsts                 1157                       # Number of squashed instructions handled by decode
system.cpu0.rename.SquashCycles                  1834                       # Number of cycles rename is squashing
system.cpu0.rename.IdleCycles                  109424                       # Number of cycles rename is idle
system.cpu0.rename.BlockCycles                  39437                       # Number of cycles rename is blocking
system.cpu0.rename.serializeStallCycles          8810                       # count of cycles rename stalled for serializing inst
system.cpu0.rename.RunCycles                   119732                       # Number of cycles rename is running
system.cpu0.rename.UnblockCycles               440917                       # Number of cycles rename is unblocking
system.cpu0.rename.RenamedInsts               1239358                       # Number of instructions processed by rename
system.cpu0.rename.ROBFullEvents                    5                       # Number of times rename has blocked due to ROB full
system.cpu0.rename.IQFullEvents                302501                       # Number of times rename has blocked due to IQ full
system.cpu0.rename.LQFullEvents                  7702                       # Number of times rename has blocked due to LQ full
system.cpu0.rename.SQFullEvents                118872                       # Number of times rename has blocked due to SQ full
system.cpu0.rename.RenamedOperands            1589169                       # Number of destination operands rename has renamed
system.cpu0.rename.RenameLookups              6136644                       # Number of register rename lookups that rename has made
system.cpu0.rename.int_rename_lookups         2044208                       # Number of integer rename lookups
system.cpu0.rename.fp_rename_lookups               22                       # Number of floating rename lookups
system.cpu0.rename.CommittedMaps              1480343                       # Number of HB maps that are committed
system.cpu0.rename.UndoneMaps                  108826                       # Number of HB maps that are undone due to squashing
system.cpu0.rename.serializingInsts               130                       # count of serializing insts renamed
system.cpu0.rename.tempSerializingInsts           130                       # count of temporary serializing insts renamed
system.cpu0.rename.skidInsts                   631196                       # count of insts added to the skid buffer
system.cpu0.memDep0.insertedLoads              288411                       # Number of loads inserted to the mem dependence unit.
system.cpu0.memDep0.insertedStores              51081                       # Number of stores inserted to the mem dependence unit.
system.cpu0.memDep0.conflictingLoads             2501                       # Number of conflicting loads.
system.cpu0.memDep0.conflictingStores             434                       # Number of conflicting stores.
system.cpu0.iq.iqInstsAdded                   1231551                       # Number of instructions added to the IQ (excludes non-spec)
system.cpu0.iq.iqNonSpecInstsAdded                273                       # Number of non-speculative instructions added to the IQ
system.cpu0.iq.iqInstsIssued                  1160760                       # Number of instructions issued
system.cpu0.iq.iqSquashedInstsIssued             5079                       # Number of squashed instructions issued
system.cpu0.iq.iqSquashedInstsExamined          80067                       # Number of squashed instructions iterated over during squash; mainly for profiling
system.cpu0.iq.iqSquashedOperandsExamined       361814                       # Number of squashed operands that are examined and possibly removed from graph
system.cpu0.iq.iqSquashedNonSpecRemoved            83                       # Number of squashed non-spec instructions that were removed
system.cpu0.iq.issued_per_cycle::samples       720154                       # Number of insts issued each cycle
system.cpu0.iq.issued_per_cycle::mean        1.611822                       # Number of insts issued each cycle
system.cpu0.iq.issued_per_cycle::stdev       0.780209                       # Number of insts issued each cycle
system.cpu0.iq.issued_per_cycle::underflows            0      0.00%      0.00% # Number of insts issued each cycle
system.cpu0.iq.issued_per_cycle::0             133671     18.56%     18.56% # Number of insts issued each cycle
system.cpu0.iq.issued_per_cycle::1              12206      1.69%     20.26% # Number of insts issued each cycle
system.cpu0.iq.issued_per_cycle::2             574277     79.74%    100.00% # Number of insts issued each cycle
system.cpu0.iq.issued_per_cycle::overflows            0      0.00%    100.00% # Number of insts issued each cycle
system.cpu0.iq.issued_per_cycle::min_value            0                       # Number of insts issued each cycle
system.cpu0.iq.issued_per_cycle::max_value            2                       # Number of insts issued each cycle
system.cpu0.iq.issued_per_cycle::total         720154                       # Number of insts issued each cycle
system.cpu0.iq.fu_full::No_OpClass                  0                       # attempts to use FU when none available
system.cpu0.iq.fu_full::IntAlu                      0                       # attempts to use FU when none available
system.cpu0.iq.fu_full::IntMult                     0                       # attempts to use FU when none available
system.cpu0.iq.fu_full::IntDiv                      0                       # attempts to use FU when none available
system.cpu0.iq.fu_full::FloatAdd                    0                       # attempts to use FU when none available
system.cpu0.iq.fu_full::FloatCmp                    0                       # attempts to use FU when none available
system.cpu0.iq.fu_full::FloatCvt                    0                       # attempts to use FU when none available
system.cpu0.iq.fu_full::FloatMult                   0                       # attempts to use FU when none available
system.cpu0.iq.fu_full::FloatDiv                    0                       # attempts to use FU when none available
system.cpu0.iq.fu_full::FloatSqrt                   0                       # attempts to use FU when none available
system.cpu0.iq.fu_full::SimdAdd                     0                       # attempts to use FU when none available
system.cpu0.iq.fu_full::SimdAddAcc                  0                       # attempts to use FU when none available
system.cpu0.iq.fu_full::SimdAlu                     0                       # attempts to use FU when none available
system.cpu0.iq.fu_full::SimdCmp                     0                       # attempts to use FU when none available
system.cpu0.iq.fu_full::SimdCvt                     0                       # attempts to use FU when none available
system.cpu0.iq.fu_full::SimdMisc                    0                       # attempts to use FU when none available
system.cpu0.iq.fu_full::SimdMult                    0                       # attempts to use FU when none available
system.cpu0.iq.fu_full::SimdMultAcc                 0                       # attempts to use FU when none available
system.cpu0.iq.fu_full::SimdShift                   0                       # attempts to use FU when none available
system.cpu0.iq.fu_full::SimdShiftAcc                0                       # attempts to use FU when none available
system.cpu0.iq.fu_full::SimdSqrt                    0                       # attempts to use FU when none available
system.cpu0.iq.fu_full::SimdFloatAdd                0                       # attempts to use FU when none available
system.cpu0.iq.fu_full::SimdFloatAlu                0                       # attempts to use FU when none available
system.cpu0.iq.fu_full::SimdFloatCmp                0                       # attempts to use FU when none available
system.cpu0.iq.fu_full::SimdFloatCvt                0                       # attempts to use FU when none available
system.cpu0.iq.fu_full::SimdFloatDiv                0                       # attempts to use FU when none available
system.cpu0.iq.fu_full::SimdFloatMisc               0                       # attempts to use FU when none available
system.cpu0.iq.fu_full::SimdFloatMult               0                       # attempts to use FU when none available
system.cpu0.iq.fu_full::SimdFloatMultAcc            0                       # attempts to use FU when none available
system.cpu0.iq.fu_full::SimdFloatSqrt               0                       # attempts to use FU when none available
system.cpu0.iq.fu_full::MemRead                     0                       # attempts to use FU when none available
system.cpu0.iq.fu_full::MemWrite                    0                       # attempts to use FU when none available
system.cpu0.iq.fu_full::IprAccess                   0                       # attempts to use FU when none available
system.cpu0.iq.fu_full::InstPrefetch                0                       # attempts to use FU when none available
system.cpu0.iq.FU_type_0::No_OpClass                0      0.00%      0.00% # Type of FU issued
system.cpu0.iq.FU_type_0::IntAlu               634527     54.66%     54.66% # Type of FU issued
system.cpu0.iq.FU_type_0::IntMult              204960     17.66%     72.32% # Type of FU issued
system.cpu0.iq.FU_type_0::IntDiv                    0      0.00%     72.32% # Type of FU issued
system.cpu0.iq.FU_type_0::FloatAdd                  0      0.00%     72.32% # Type of FU issued
system.cpu0.iq.FU_type_0::FloatCmp                  0      0.00%     72.32% # Type of FU issued
system.cpu0.iq.FU_type_0::FloatCvt                  0      0.00%     72.32% # Type of FU issued
system.cpu0.iq.FU_type_0::FloatMult                 0      0.00%     72.32% # Type of FU issued
system.cpu0.iq.FU_type_0::FloatDiv                  0      0.00%     72.32% # Type of FU issued
system.cpu0.iq.FU_type_0::FloatSqrt                 0      0.00%     72.32% # Type of FU issued
system.cpu0.iq.FU_type_0::SimdAdd                   0      0.00%     72.32% # Type of FU issued
system.cpu0.iq.FU_type_0::SimdAddAcc                0      0.00%     72.32% # Type of FU issued
system.cpu0.iq.FU_type_0::SimdAlu                   0      0.00%     72.32% # Type of FU issued
system.cpu0.iq.FU_type_0::SimdCmp                   0      0.00%     72.32% # Type of FU issued
system.cpu0.iq.FU_type_0::SimdCvt                   0      0.00%     72.32% # Type of FU issued
system.cpu0.iq.FU_type_0::SimdMisc                  0      0.00%     72.32% # Type of FU issued
system.cpu0.iq.FU_type_0::SimdMult                  0      0.00%     72.32% # Type of FU issued
system.cpu0.iq.FU_type_0::SimdMultAcc               0      0.00%     72.32% # Type of FU issued
system.cpu0.iq.FU_type_0::SimdShift                 0      0.00%     72.32% # Type of FU issued
system.cpu0.iq.FU_type_0::SimdShiftAcc              0      0.00%     72.32% # Type of FU issued
system.cpu0.iq.FU_type_0::SimdSqrt                  0      0.00%     72.32% # Type of FU issued
system.cpu0.iq.FU_type_0::SimdFloatAdd              0      0.00%     72.32% # Type of FU issued
system.cpu0.iq.FU_type_0::SimdFloatAlu              0      0.00%     72.32% # Type of FU issued
system.cpu0.iq.FU_type_0::SimdFloatCmp              0      0.00%     72.32% # Type of FU issued
system.cpu0.iq.FU_type_0::SimdFloatCvt              0      0.00%     72.32% # Type of FU issued
system.cpu0.iq.FU_type_0::SimdFloatDiv              0      0.00%     72.32% # Type of FU issued
system.cpu0.iq.FU_type_0::SimdFloatMisc             3      0.00%     72.32% # Type of FU issued
system.cpu0.iq.FU_type_0::SimdFloatMult             0      0.00%     72.32% # Type of FU issued
system.cpu0.iq.FU_type_0::SimdFloatMultAcc            0      0.00%     72.32% # Type of FU issued
system.cpu0.iq.FU_type_0::SimdFloatSqrt             0      0.00%     72.32% # Type of FU issued
system.cpu0.iq.FU_type_0::MemRead              273019     23.52%     95.84% # Type of FU issued
system.cpu0.iq.FU_type_0::MemWrite              48251      4.16%    100.00% # Type of FU issued
system.cpu0.iq.FU_type_0::IprAccess                 0      0.00%    100.00% # Type of FU issued
system.cpu0.iq.FU_type_0::InstPrefetch              0      0.00%    100.00% # Type of FU issued
system.cpu0.iq.FU_type_0::total               1160760                       # Type of FU issued
system.cpu0.iq.rate                          1.523505                       # Inst issue rate
system.cpu0.iq.fu_busy_cnt                          0                       # FU busy when requested
system.cpu0.iq.fu_busy_rate                         0                       # FU busy rate (busy events/executed inst)
system.cpu0.iq.int_inst_queue_reads           3046697                       # Number of integer instruction queue reads
system.cpu0.iq.int_inst_queue_writes          1311900                       # Number of integer instruction queue writes
system.cpu0.iq.int_inst_queue_wakeup_accesses      1157427                       # Number of integer instruction queue wakeup accesses
system.cpu0.iq.fp_inst_queue_reads                 56                       # Number of floating instruction queue reads
system.cpu0.iq.fp_inst_queue_writes                28                       # Number of floating instruction queue writes
system.cpu0.iq.fp_inst_queue_wakeup_accesses           28                       # Number of floating instruction queue wakeup accesses
system.cpu0.iq.int_alu_accesses               1160732                       # Number of integer alu accesses
system.cpu0.iq.fp_alu_accesses                     28                       # Number of floating point alu accesses
system.cpu0.iew.lsq.thread0.forwLoads              87                       # Number of loads that had data forwarded from stores
system.cpu0.iew.lsq.thread0.invAddrLoads            0                       # Number of loads ignored due to an invalid address
system.cpu0.iew.lsq.thread0.squashedLoads        19002                       # Number of loads squashed
system.cpu0.iew.lsq.thread0.ignoredResponses            3                       # Number of memory responses ignored because the instruction is squashed
system.cpu0.iew.lsq.thread0.memOrderViolation           37                       # Number of memory ordering violations
system.cpu0.iew.lsq.thread0.squashedStores         3204                       # Number of stores squashed
system.cpu0.iew.lsq.thread0.invAddrSwpfs            0                       # Number of software prefetches ignored due to an invalid address
system.cpu0.iew.lsq.thread0.blockedLoads            0                       # Number of blocked loads due to partial load-store forwarding
system.cpu0.iew.lsq.thread0.rescheduledLoads           39                       # Number of loads that were rescheduled
system.cpu0.iew.lsq.thread0.cacheBlocked           59                       # Number of times an access to memory failed due to the cache being blocked
system.cpu0.iew.iewIdleCycles                       0                       # Number of cycles IEW is idle
system.cpu0.iew.iewSquashCycles                  1834                       # Number of cycles IEW is squashing
system.cpu0.iew.iewBlockCycles                  10018                       # Number of cycles IEW is blocking
system.cpu0.iew.iewUnblockCycles                  479                       # Number of cycles IEW is unblocking
system.cpu0.iew.iewDispatchedInsts            1231831                       # Number of instructions dispatched to IQ
system.cpu0.iew.iewDispSquashedInsts               93                       # Number of squashed instructions skipped by dispatch
system.cpu0.iew.iewDispLoadInsts               288411                       # Number of dispatched load instructions
system.cpu0.iew.iewDispStoreInsts               51081                       # Number of dispatched store instructions
system.cpu0.iew.iewDispNonSpecInsts               123                       # Number of dispatched non-speculative instructions
system.cpu0.iew.iewIQFullEvents                    25                       # Number of times the IQ has become full, causing a stall
system.cpu0.iew.iewLSQFullEvents                  450                       # Number of times the LSQ has become full, causing a stall
system.cpu0.iew.memOrderViolationEvents            37                       # Number of memory order violations
system.cpu0.iew.predictedTakenIncorrect          1283                       # Number of branches that were predicted taken incorrectly
system.cpu0.iew.predictedNotTakenIncorrect          541                       # Number of branches that were predicted not taken incorrectly
system.cpu0.iew.branchMispredicts                1824                       # Number of branch mispredicts detected at execute
system.cpu0.iew.iewExecutedInsts              1159263                       # Number of executed instructions
system.cpu0.iew.iewExecLoadInsts               271799                       # Number of load instructions executed
system.cpu0.iew.iewExecSquashedInsts             1497                       # Number of squashed instructions skipped in execute
system.cpu0.iew.exec_swp                            0                       # number of swp insts executed
system.cpu0.iew.exec_nop                            7                       # number of nop insts executed
system.cpu0.iew.exec_refs                      319926                       # number of memory reference insts executed
system.cpu0.iew.exec_branches                   81928                       # Number of branches executed
system.cpu0.iew.exec_stores                     48127                       # Number of stores executed
system.cpu0.iew.exec_rate                    1.521540                       # Inst execution rate
system.cpu0.iew.wb_sent                       1157624                       # cumulative count of insts sent to commit
system.cpu0.iew.wb_count                      1157455                       # cumulative count of insts written-back
system.cpu0.iew.wb_producers                  1019331                       # num instructions producing a value
system.cpu0.iew.wb_consumers                  1815957                       # num instructions consuming a value
system.cpu0.iew.wb_penalized                        0                       # number of instrctions required to write to 'other' IQ
system.cpu0.iew.wb_rate                      1.519167                       # insts written-back per cycle
system.cpu0.iew.wb_fanout                    0.561319                       # average fanout of values written-back
system.cpu0.iew.wb_penalized_rate                   0                       # fraction of instructions written-back that wrote to 'other' IQ
system.cpu0.commit.commitSquashedInsts          80077                       # The number of squashed insts skipped by commit
system.cpu0.commit.commitNonSpecStalls            190                       # The number of times commit has been forced to stall to communicate backwards
system.cpu0.commit.branchMispredicts             1785                       # The number of times a branch was mispredicted
system.cpu0.commit.committed_per_cycle::samples       708944                       # Number of insts commited each cycle
system.cpu0.commit.committed_per_cycle::mean     1.624609                       # Number of insts commited each cycle
system.cpu0.commit.committed_per_cycle::stdev     2.369898                       # Number of insts commited each cycle
system.cpu0.commit.committed_per_cycle::underflows            0      0.00%      0.00% # Number of insts commited each cycle
system.cpu0.commit.committed_per_cycle::0       303514     42.81%     42.81% # Number of insts commited each cycle
system.cpu0.commit.committed_per_cycle::1       158606     22.37%     65.18% # Number of insts commited each cycle
system.cpu0.commit.committed_per_cycle::2       131716     18.58%     83.76% # Number of insts commited each cycle
system.cpu0.commit.committed_per_cycle::3        30097      4.25%     88.01% # Number of insts commited each cycle
system.cpu0.commit.committed_per_cycle::4         2214      0.31%     88.32% # Number of insts commited each cycle
system.cpu0.commit.committed_per_cycle::5         3421      0.48%     88.80% # Number of insts commited each cycle
system.cpu0.commit.committed_per_cycle::6         9317      1.31%     90.12% # Number of insts commited each cycle
system.cpu0.commit.committed_per_cycle::7         2907      0.41%     90.53% # Number of insts commited each cycle
system.cpu0.commit.committed_per_cycle::8        67152      9.47%    100.00% # Number of insts commited each cycle
system.cpu0.commit.committed_per_cycle::overflows            0      0.00%    100.00% # Number of insts commited each cycle
system.cpu0.commit.committed_per_cycle::min_value            0                       # Number of insts commited each cycle
system.cpu0.commit.committed_per_cycle::max_value            8                       # Number of insts commited each cycle
system.cpu0.commit.committed_per_cycle::total       708944                       # Number of insts commited each cycle
system.cpu0.commit.committedInsts             1122301                       # Number of instructions committed
system.cpu0.commit.committedOps               1151757                       # Number of ops (including micro ops) committed
system.cpu0.commit.swp_count                        0                       # Number of s/w prefetches committed
system.cpu0.commit.refs                        317286                       # Number of memory references committed
system.cpu0.commit.loads                       269409                       # Number of loads committed
system.cpu0.commit.membars                        114                       # Number of memory barriers committed
system.cpu0.commit.branches                     81261                       # Number of branches committed
system.cpu0.commit.fp_insts                        28                       # Number of committed floating point instructions.
system.cpu0.commit.int_insts                  1071004                       # Number of committed integer instructions.
system.cpu0.commit.function_calls                 293                       # Number of function calls committed.
system.cpu0.commit.op_class_0::No_OpClass            0      0.00%      0.00% # Class of committed instruction
system.cpu0.commit.op_class_0::IntAlu          629642     54.67%     54.67% # Class of committed instruction
system.cpu0.commit.op_class_0::IntMult         204826     17.78%     72.45% # Class of committed instruction
system.cpu0.commit.op_class_0::IntDiv               0      0.00%     72.45% # Class of committed instruction
system.cpu0.commit.op_class_0::FloatAdd             0      0.00%     72.45% # Class of committed instruction
system.cpu0.commit.op_class_0::FloatCmp             0      0.00%     72.45% # Class of committed instruction
system.cpu0.commit.op_class_0::FloatCvt             0      0.00%     72.45% # Class of committed instruction
system.cpu0.commit.op_class_0::FloatMult            0      0.00%     72.45% # Class of committed instruction
system.cpu0.commit.op_class_0::FloatDiv             0      0.00%     72.45% # Class of committed instruction
system.cpu0.commit.op_class_0::FloatSqrt            0      0.00%     72.45% # Class of committed instruction
system.cpu0.commit.op_class_0::SimdAdd              0      0.00%     72.45% # Class of committed instruction
system.cpu0.commit.op_class_0::SimdAddAcc            0      0.00%     72.45% # Class of committed instruction
system.cpu0.commit.op_class_0::SimdAlu              0      0.00%     72.45% # Class of committed instruction
system.cpu0.commit.op_class_0::SimdCmp              0      0.00%     72.45% # Class of committed instruction
system.cpu0.commit.op_class_0::SimdCvt              0      0.00%     72.45% # Class of committed instruction
system.cpu0.commit.op_class_0::SimdMisc             0      0.00%     72.45% # Class of committed instruction
system.cpu0.commit.op_class_0::SimdMult             0      0.00%     72.45% # Class of committed instruction
system.cpu0.commit.op_class_0::SimdMultAcc            0      0.00%     72.45% # Class of committed instruction
system.cpu0.commit.op_class_0::SimdShift            0      0.00%     72.45% # Class of committed instruction
system.cpu0.commit.op_class_0::SimdShiftAcc            0      0.00%     72.45% # Class of committed instruction
system.cpu0.commit.op_class_0::SimdSqrt             0      0.00%     72.45% # Class of committed instruction
system.cpu0.commit.op_class_0::SimdFloatAdd            0      0.00%     72.45% # Class of committed instruction
system.cpu0.commit.op_class_0::SimdFloatAlu            0      0.00%     72.45% # Class of committed instruction
system.cpu0.commit.op_class_0::SimdFloatCmp            0      0.00%     72.45% # Class of committed instruction
system.cpu0.commit.op_class_0::SimdFloatCvt            0      0.00%     72.45% # Class of committed instruction
system.cpu0.commit.op_class_0::SimdFloatDiv            0      0.00%     72.45% # Class of committed instruction
system.cpu0.commit.op_class_0::SimdFloatMisc            3      0.00%     72.45% # Class of committed instruction
system.cpu0.commit.op_class_0::SimdFloatMult            0      0.00%     72.45% # Class of committed instruction
system.cpu0.commit.op_class_0::SimdFloatMultAcc            0      0.00%     72.45% # Class of committed instruction
system.cpu0.commit.op_class_0::SimdFloatSqrt            0      0.00%     72.45% # Class of committed instruction
system.cpu0.commit.op_class_0::MemRead         269409     23.39%     95.84% # Class of committed instruction
system.cpu0.commit.op_class_0::MemWrite         47877      4.16%    100.00% # Class of committed instruction
system.cpu0.commit.op_class_0::IprAccess            0      0.00%    100.00% # Class of committed instruction
system.cpu0.commit.op_class_0::InstPrefetch            0      0.00%    100.00% # Class of committed instruction
[...]
system.l2.overall_mshr_miss_latency::cpu0.data    108749250                       # number of overall MSHR miss cycles
system.l2.overall_mshr_miss_latency::cpu1.inst      1189500                       # number of overall MSHR miss cycles
system.l2.overall_mshr_miss_latency::cpu1.data       333500                       # number of overall MSHR miss cycles
system.l2.overall_mshr_miss_latency::cpu2.inst       169250                       # number of overall MSHR miss cycles
system.l2.overall_mshr_miss_latency::cpu2.data       424750                       # number of overall MSHR miss cycles
system.l2.overall_mshr_miss_latency::cpu3.inst       539500                       # number of overall MSHR miss cycles
system.l2.overall_mshr_miss_latency::cpu3.data       403000                       # number of overall MSHR miss cycles
system.l2.overall_mshr_miss_latency::total    144607750                       # number of overall MSHR miss cycles
system.l2.ReadReq_mshr_miss_rate::cpu0.inst     0.837438                       # mshr miss rate for ReadReq accesses
system.l2.ReadReq_mshr_miss_rate::cpu0.data     0.053695                       # mshr miss rate for ReadReq accesses
system.l2.ReadReq_mshr_miss_rate::cpu1.inst     0.333333                       # mshr miss rate for ReadReq accesses
system.l2.ReadReq_mshr_miss_rate::cpu2.inst     0.054545                       # mshr miss rate for ReadReq accesses
system.l2.ReadReq_mshr_miss_rate::cpu2.data     0.005102                       # mshr miss rate for ReadReq accesses
system.l2.ReadReq_mshr_miss_rate::cpu3.inst     0.153846                       # mshr miss rate for ReadReq accesses
system.l2.ReadReq_mshr_miss_rate::cpu3.data     0.017857                       # mshr miss rate for ReadReq accesses
system.l2.ReadReq_mshr_miss_rate::total      0.207415                       # mshr miss rate for ReadReq accesses
system.l2.UpgradeReq_mshr_miss_rate::cpu0.data     0.923077                       # mshr miss rate for UpgradeReq accesses
system.l2.UpgradeReq_mshr_miss_rate::total     0.923077                       # mshr miss rate for UpgradeReq accesses
system.l2.SCUpgradeReq_mshr_miss_rate::cpu1.data            1                       # mshr miss rate for SCUpgradeReq accesses
system.l2.SCUpgradeReq_mshr_miss_rate::total     0.500000                       # mshr miss rate for SCUpgradeReq accesses
system.l2.ReadExReq_mshr_miss_rate::cpu0.data     0.458151                       # mshr miss rate for ReadExReq accesses
system.l2.ReadExReq_mshr_miss_rate::cpu1.data     0.003891                       # mshr miss rate for ReadExReq accesses
system.l2.ReadExReq_mshr_miss_rate::cpu2.data     0.003891                       # mshr miss rate for ReadExReq accesses
system.l2.ReadExReq_mshr_miss_rate::cpu3.data     0.003891                       # mshr miss rate for ReadExReq accesses
system.l2.ReadExReq_mshr_miss_rate::total     0.250297                       # mshr miss rate for ReadExReq accesses
system.l2.demand_mshr_miss_rate::cpu0.inst     0.837438                       # mshr miss rate for demand accesses
system.l2.demand_mshr_miss_rate::cpu0.data     0.313753                       # mshr miss rate for demand accesses
system.l2.demand_mshr_miss_rate::cpu1.inst     0.333333                       # mshr miss rate for demand accesses
system.l2.demand_mshr_miss_rate::cpu1.data     0.003610                       # mshr miss rate for demand accesses
system.l2.demand_mshr_miss_rate::cpu2.inst     0.054545                       # mshr miss rate for demand accesses
system.l2.demand_mshr_miss_rate::cpu2.data     0.004085                       # mshr miss rate for demand accesses
system.l2.demand_mshr_miss_rate::cpu3.inst     0.153846                       # mshr miss rate for demand accesses
system.l2.demand_mshr_miss_rate::cpu3.data     0.004613                       # mshr miss rate for demand accesses
system.l2.demand_mshr_miss_rate::total       0.236701                       # mshr miss rate for demand accesses
system.l2.overall_mshr_miss_rate::cpu0.inst     0.837438                       # mshr miss rate for overall accesses
system.l2.overall_mshr_miss_rate::cpu0.data     0.313753                       # mshr miss rate for overall accesses
system.l2.overall_mshr_miss_rate::cpu1.inst     0.333333                       # mshr miss rate for overall accesses
system.l2.overall_mshr_miss_rate::cpu1.data     0.003610                       # mshr miss rate for overall accesses
system.l2.overall_mshr_miss_rate::cpu2.inst     0.054545                       # mshr miss rate for overall accesses
system.l2.overall_mshr_miss_rate::cpu2.data     0.004085                       # mshr miss rate for overall accesses
system.l2.overall_mshr_miss_rate::cpu3.inst     0.153846                       # mshr miss rate for overall accesses
system.l2.overall_mshr_miss_rate::cpu3.data     0.004613                       # mshr miss rate for overall accesses
system.l2.overall_mshr_miss_rate::total      0.236701                       # mshr miss rate for overall accesses
system.l2.ReadReq_avg_mshr_miss_latency::cpu0.inst 64311.764706                       # average ReadReq mshr miss latency
system.l2.ReadReq_avg_mshr_miss_latency::cpu0.data 67688.073394                       # average ReadReq mshr miss latency
system.l2.ReadReq_avg_mshr_miss_latency::cpu1.inst 69970.588235                       # average ReadReq mshr miss latency
system.l2.ReadReq_avg_mshr_miss_latency::cpu2.inst 56416.666667                       # average ReadReq mshr miss latency
system.l2.ReadReq_avg_mshr_miss_latency::cpu2.data        70500                       # average ReadReq mshr miss latency
system.l2.ReadReq_avg_mshr_miss_latency::cpu3.inst 67437.500000                       # average ReadReq mshr miss latency
system.l2.ReadReq_avg_mshr_miss_latency::cpu3.data        63500                       # average ReadReq mshr miss latency
system.l2.ReadReq_avg_mshr_miss_latency::total 65037.365177                       # average ReadReq mshr miss latency
system.l2.UpgradeReq_avg_mshr_miss_latency::cpu0.data 17917.666667                       # average UpgradeReq mshr miss latency
system.l2.UpgradeReq_avg_mshr_miss_latency::total 17917.666667                       # average UpgradeReq mshr miss latency
system.l2.SCUpgradeReq_avg_mshr_miss_latency::cpu1.data        17501                       # average SCUpgradeReq mshr miss latency
system.l2.SCUpgradeReq_avg_mshr_miss_latency::total        17501                       # average SCUpgradeReq mshr miss latency
system.l2.ReadExReq_avg_mshr_miss_latency::cpu0.data 60520.149254                       # average ReadExReq mshr miss latency
system.l2.ReadExReq_avg_mshr_miss_latency::cpu1.data        83375                       # average ReadExReq mshr miss latency
system.l2.ReadExReq_avg_mshr_miss_latency::cpu2.data 88562.500000                       # average ReadExReq mshr miss latency
system.l2.ReadExReq_avg_mshr_miss_latency::cpu3.data        84875                       # average ReadExReq mshr miss latency
system.l2.ReadExReq_avg_mshr_miss_latency::total 60698.577356                       # average ReadExReq mshr miss latency
system.l2.demand_avg_mshr_miss_latency::cpu0.inst 64311.764706                       # average overall mshr miss latency
system.l2.demand_avg_mshr_miss_latency::cpu0.data 60958.099776                       # average overall mshr miss latency
system.l2.demand_avg_mshr_miss_latency::cpu1.inst 69970.588235                       # average overall mshr miss latency
system.l2.demand_avg_mshr_miss_latency::cpu1.data        83375                       # average overall mshr miss latency
system.l2.demand_avg_mshr_miss_latency::cpu2.inst 56416.666667                       # average overall mshr miss latency
system.l2.demand_avg_mshr_miss_latency::cpu2.data        84950                       # average overall mshr miss latency
system.l2.demand_avg_mshr_miss_latency::cpu3.inst 67437.500000                       # average overall mshr miss latency
system.l2.demand_avg_mshr_miss_latency::cpu3.data        80600                       # average overall mshr miss latency
system.l2.demand_avg_mshr_miss_latency::total 61904.002568                       # average overall mshr miss latency
system.l2.overall_avg_mshr_miss_latency::cpu0.inst 64311.764706                       # average overall mshr miss latency
system.l2.overall_avg_mshr_miss_latency::cpu0.data 60958.099776                       # average overall mshr miss latency
system.l2.overall_avg_mshr_miss_latency::cpu1.inst 69970.588235                       # average overall mshr miss latency
system.l2.overall_avg_mshr_miss_latency::cpu1.data        83375                       # average overall mshr miss latency
system.l2.overall_avg_mshr_miss_latency::cpu2.inst 56416.666667                       # average overall mshr miss latency
system.l2.overall_avg_mshr_miss_latency::cpu2.data        84950                       # average overall mshr miss latency
system.l2.overall_avg_mshr_miss_latency::cpu3.inst 67437.500000                       # average overall mshr miss latency
system.l2.overall_avg_mshr_miss_latency::cpu3.data        80600                       # average overall mshr miss latency
system.l2.overall_avg_mshr_miss_latency::total 61904.002568                       # average overall mshr miss latency
system.l2.no_allocate_misses                        0                       # Number of misses that were no-allocate
system.membus.trans_dist::ReadReq                 648                       # Transaction distribution
system.membus.trans_dist::ReadResp                647                       # Transaction distribution
system.membus.trans_dist::UpgradeReq               18                       # Transaction distribution
system.membus.trans_dist::SCUpgradeReq              9                       # Transaction distribution
system.membus.trans_dist::UpgradeResp              13                       # Transaction distribution
system.membus.trans_dist::ReadExReq              1687                       # Transaction distribution
system.membus.trans_dist::ReadExResp             1687                       # Transaction distribution
system.membus.pkt_count_system.l2.mem_side::system.mem_ctrls.port         4709                       # Packet count per connected master and slave (bytes)
system.membus.pkt_count::total                   4709                       # Packet count per connected master and slave (bytes)
system.membus.pkt_size_system.l2.mem_side::system.mem_ctrls.port       149376                       # Cumulative packet size per connected master and slave (bytes)
system.membus.pkt_size::total                  149376                       # Cumulative packet size per connected master and slave (bytes)
system.membus.snoops                               14                       # Total snoops (count)
system.membus.snoop_fanout::samples              2362                       # Request fanout histogram
system.membus.snoop_fanout::mean                    0                       # Request fanout histogram
system.membus.snoop_fanout::stdev                   0                       # Request fanout histogram
system.membus.snoop_fanout::underflows              0      0.00%      0.00% # Request fanout histogram
system.membus.snoop_fanout::0                    2362    100.00%    100.00% # Request fanout histogram
system.membus.snoop_fanout::1                       0      0.00%    100.00% # Request fanout histogram
system.membus.snoop_fanout::overflows               0      0.00%    100.00% # Request fanout histogram
system.membus.snoop_fanout::min_value               0                       # Request fanout histogram
system.membus.snoop_fanout::max_value               0                       # Request fanout histogram
system.membus.snoop_fanout::total                2362                       # Request fanout histogram
system.membus.reqLayer0.occupancy             2555500                       # Layer occupancy (ticks)
system.membus.reqLayer0.utilization               0.7                       # Layer utilization (%)
system.membus.respLayer1.occupancy           12332737                       # Layer occupancy (ticks)
system.membus.respLayer1.utilization              3.2                       # Layer utilization (%)
system.tol2bus.trans_dist::ReadReq              10077                       # Transaction distribution
system.tol2bus.trans_dist::ReadResp             10075                       # Transaction distribution
system.tol2bus.trans_dist::Writeback             7046                       # Transaction distribution
system.tol2bus.trans_dist::UpgradeReq              19                       # Transaction distribution
system.tol2bus.trans_dist::SCUpgradeReq            10                       # Transaction distribution
system.tol2bus.trans_dist::UpgradeResp             29                       # Transaction distribution
system.tol2bus.trans_dist::SCUpgradeFailReq            1                       # Transaction distribution
system.tol2bus.trans_dist::UpgradeFailResp            1                       # Transaction distribution
system.tol2bus.trans_dist::ReadExReq             6746                       # Transaction distribution
system.tol2bus.trans_dist::ReadExResp            6746                       # Transaction distribution
system.tol2bus.pkt_count_system.cpu0.icache.mem_side::system.l2.cpu_side         1216                       # Packet count per connected master and slave (bytes)
system.tol2bus.pkt_count_system.cpu0.dcache.mem_side::system.l2.cpu_side        15147                       # Packet count per connected master and slave (bytes)
system.tol2bus.pkt_count_system.cpu1.icache.mem_side::system.l2.cpu_side          102                       # Packet count per connected master and slave (bytes)
system.tol2bus.pkt_count_system.cpu1.dcache.mem_side::system.l2.cpu_side         5672                       # Packet count per connected master and slave (bytes)
system.tol2bus.pkt_count_system.cpu2.icache.mem_side::system.l2.cpu_side          110                       # Packet count per connected master and slave (bytes)
system.tol2bus.pkt_count_system.cpu2.dcache.mem_side::system.l2.cpu_side         5861                       # Packet count per connected master and slave (bytes)
system.tol2bus.pkt_count_system.cpu3.icache.mem_side::system.l2.cpu_side          104                       # Packet count per connected master and slave (bytes)
system.tol2bus.pkt_count_system.cpu3.dcache.mem_side::system.l2.cpu_side         5569                       # Packet count per connected master and slave (bytes)
system.tol2bus.pkt_count::total                 33781                       # Packet count per connected master and slave (bytes)
system.tol2bus.pkt_size_system.cpu0.icache.mem_side::system.l2.cpu_side        38848                       # Cumulative packet size per connected master and slave (bytes)
system.tol2bus.pkt_size_system.cpu0.dcache.mem_side::system.l2.cpu_side       603008                       # Cumulative packet size per connected master and slave (bytes)
system.tol2bus.pkt_size_system.cpu1.icache.mem_side::system.l2.cpu_side         3264                       # Cumulative packet size per connected master and slave (bytes)
system.tol2bus.pkt_size_system.cpu1.dcache.mem_side::system.l2.cpu_side       139904                       # Cumulative packet size per connected master and slave (bytes)
system.tol2bus.pkt_size_system.cpu2.icache.mem_side::system.l2.cpu_side         3520                       # Cumulative packet size per connected master and slave (bytes)
system.tol2bus.pkt_size_system.cpu2.dcache.mem_side::system.l2.cpu_side       153920                       # Cumulative packet size per connected master and slave (bytes)
system.tol2bus.pkt_size_system.cpu3.icache.mem_side::system.l2.cpu_side         3328                       # Cumulative packet size per connected master and slave (bytes)
system.tol2bus.pkt_size_system.cpu3.dcache.mem_side::system.l2.cpu_side       136640                       # Cumulative packet size per connected master and slave (bytes)
system.tol2bus.pkt_size::total                1082432                       # Cumulative packet size per connected master and slave (bytes)
system.tol2bus.snoops                            6969                       # Total snoops (count)
system.tol2bus.snoop_fanout::samples            23899                       # Request fanout histogram
system.tol2bus.snoop_fanout::mean                   7                       # Request fanout histogram
system.tol2bus.snoop_fanout::stdev                  0                       # Request fanout histogram
system.tol2bus.snoop_fanout::underflows             0      0.00%      0.00% # Request fanout histogram
system.tol2bus.snoop_fanout::0                      0      0.00%      0.00% # Request fanout histogram
system.tol2bus.snoop_fanout::1                      0      0.00%      0.00% # Request fanout histogram
system.tol2bus.snoop_fanout::2                      0      0.00%      0.00% # Request fanout histogram
system.tol2bus.snoop_fanout::3                      0      0.00%      0.00% # Request fanout histogram
system.tol2bus.snoop_fanout::4                      0      0.00%      0.00% # Request fanout histogram
system.tol2bus.snoop_fanout::5                      0      0.00%      0.00% # Request fanout histogram
system.tol2bus.snoop_fanout::6                      0      0.00%      0.00% # Request fanout histogram
system.tol2bus.snoop_fanout::7                  23899    100.00%    100.00% # Request fanout histogram
system.tol2bus.snoop_fanout::8                      0      0.00%    100.00% # Request fanout histogram
system.tol2bus.snoop_fanout::overflows              0      0.00%    100.00% # Request fanout histogram
system.tol2bus.snoop_fanout::min_value              7                       # Request fanout histogram
system.tol2bus.snoop_fanout::max_value              7                       # Request fanout histogram
system.tol2bus.snoop_fanout::total              23899                       # Request fanout histogram
system.tol2bus.reqLayer0.occupancy           18995500                       # Layer occupancy (ticks)
system.tol2bus.reqLayer0.utilization              5.0                       # Layer utilization (%)
system.tol2bus.respLayer0.occupancy           1010483                       # Layer occupancy (ticks)
system.tol2bus.respLayer0.utilization             0.3                       # Layer utilization (%)
system.tol2bus.respLayer1.occupancy           8940742                       # Layer occupancy (ticks)
system.tol2bus.respLayer1.utilization             2.3                       # Layer utilization (%)
system.tol2bus.respLayer4.occupancy             80738                       # Layer occupancy (ticks)
system.tol2bus.respLayer4.utilization             0.0                       # Layer utilization (%)
system.tol2bus.respLayer5.occupancy           5226994                       # Layer occupancy (ticks)
system.tol2bus.respLayer5.utilization             1.4                       # Layer utilization (%)
system.tol2bus.respLayer8.occupancy             88972                       # Layer occupancy (ticks)
system.tol2bus.respLayer8.utilization             0.0                       # Layer utilization (%)
system.tol2bus.respLayer9.occupancy           5182489                       # Layer occupancy (ticks)
system.tol2bus.respLayer9.utilization             1.4                       # Layer utilization (%)
system.tol2bus.respLayer12.occupancy            83473                       # Layer occupancy (ticks)
system.tol2bus.respLayer12.utilization            0.0                       # Layer utilization (%)
system.tol2bus.respLayer13.occupancy          5155231                       # Layer occupancy (ticks)
system.tol2bus.respLayer13.utilization            1.4                       # Layer utilization (%)

---------- End Simulation Statistics   ----------
